* NGSPICE file created from uProcessor.ext - technology: scmos

* Black-box entry subcircuit for INVX1 abstract view
.subckt INVX1 A gnd Y vdd
.ends

* Black-box entry subcircuit for BUFX2 abstract view
.subckt BUFX2 A gnd Y vdd
.ends

* Black-box entry subcircuit for AND2X2 abstract view
.subckt AND2X2 A B gnd Y vdd
.ends

* Black-box entry subcircuit for AOI22X1 abstract view
.subckt AOI22X1 A B C D gnd Y vdd
.ends

* Black-box entry subcircuit for MUX2X1 abstract view
.subckt MUX2X1 A B S gnd Y vdd
.ends

* Black-box entry subcircuit for FILL abstract view
.subckt FILL gnd vdd
.ends

* Black-box entry subcircuit for OAI22X1 abstract view
.subckt OAI22X1 A B C D gnd Y vdd
.ends

* Black-box entry subcircuit for OAI21X1 abstract view
.subckt OAI21X1 A B C gnd Y vdd
.ends

* Black-box entry subcircuit for NOR2X1 abstract view
.subckt NOR2X1 A B gnd Y vdd
.ends

* Black-box entry subcircuit for DFFPOSX1 abstract view
.subckt DFFPOSX1 Q CLK D gnd vdd
.ends

* Black-box entry subcircuit for XNOR2X1 abstract view
.subckt XNOR2X1 A B gnd Y vdd
.ends

* Black-box entry subcircuit for NAND2X1 abstract view
.subckt NAND2X1 A B gnd Y vdd
.ends

* Black-box entry subcircuit for AOI21X1 abstract view
.subckt AOI21X1 A B C gnd Y vdd
.ends

* Black-box entry subcircuit for OR2X2 abstract view
.subckt OR2X2 A B gnd Y vdd
.ends

* Black-box entry subcircuit for INVX8 abstract view
.subckt INVX8 A gnd Y vdd
.ends

* Black-box entry subcircuit for NAND3X1 abstract view
.subckt NAND3X1 A B C gnd Y vdd
.ends

* Black-box entry subcircuit for CLKBUF1 abstract view
.subckt CLKBUF1 A gnd Y vdd
.ends

* Black-box entry subcircuit for INVX4 abstract view
.subckt INVX4 A gnd Y vdd
.ends

* Black-box entry subcircuit for NOR3X1 abstract view
.subckt NOR3X1 A B C gnd Y vdd
.ends

* Black-box entry subcircuit for XOR2X1 abstract view
.subckt XOR2X1 A B gnd Y vdd
.ends

* Black-box entry subcircuit for INVX2 abstract view
.subckt INVX2 A gnd Y vdd
.ends

.subckt uProcessor gnd vdd adrs_bus[15] adrs_bus[14] adrs_bus[13] adrs_bus[12] adrs_bus[11]
+ adrs_bus[10] adrs_bus[9] adrs_bus[8] adrs_bus[7] adrs_bus[6] adrs_bus[5] adrs_bus[4]
+ adrs_bus[3] adrs_bus[2] adrs_bus[1] adrs_bus[0] clock data_in[15] data_in[14] data_in[13]
+ data_in[12] data_in[11] data_in[10] data_in[9] data_in[8] data_in[7] data_in[6]
+ data_in[5] data_in[4] data_in[3] data_in[2] data_in[1] data_in[0] data_out[15] data_out[14]
+ data_out[13] data_out[12] data_out[11] data_out[10] data_out[9] data_out[8] data_out[7]
+ data_out[6] data_out[5] data_out[4] data_out[3] data_out[2] data_out[1] data_out[0]
+ mem_rd mem_wr reset
X_3155_ gnd gnd _3157_/A vdd INVX1
X_3086_ gnd gnd _3086_/Y vdd INVX1
X_2037_ _2660_/A gnd data_out[5] vdd BUFX2
X_2106_ _2821_/B _2821_/A gnd _2106_/Y vdd AND2X2
X_2939_ gnd _3159_/B gnd _3159_/D gnd _2939_/Y vdd AOI22X1
X_3988_ _3988_/A _4143_/A _3449_/A gnd _3988_/Y vdd MUX2X1
XSFILL37840x20100 gnd vdd FILL
XSFILL67920x16100 gnd vdd FILL
X_3842_ _4275_/Q _4291_/Q _3842_/S gnd _3845_/D vdd MUX2X1
X_3911_ _3911_/A _3909_/Y _3845_/C _3911_/D gnd _3912_/A vdd OAI22X1
X_2655_ _2655_/A _2540_/A _2651_/A gnd _2656_/C vdd OAI21X1
X_2724_ _2565_/B _2745_/B gnd _2724_/Y vdd NOR2X1
X_3773_ _3537_/C _3777_/B gnd _3775_/B vdd NOR2X1
X_4325_ _4325_/Q _4325_/CLK _3870_/Y gnd vdd DFFPOSX1
X_3207_ _3119_/A gnd _3207_/C _3119_/D gnd _3208_/B vdd AOI22X1
X_4256_ _3657_/A _4314_/CLK _3658_/Y gnd vdd DFFPOSX1
X_4187_ _3681_/A _4204_/CLK _3682_/Y gnd vdd DFFPOSX1
X_2586_ _2586_/A _2586_/B gnd _2586_/Y vdd NOR2X1
X_3138_ _3138_/A _3138_/B _2284_/Y _2962_/D gnd _3139_/B vdd AOI22X1
X_3069_ _3069_/A _3157_/B _3069_/C gnd _3070_/A vdd OAI21X1
XBUFX2_insert122 _3517_/Q gnd _4057_/C vdd BUFX2
XFILL72080x30100 gnd vdd FILL
XBUFX2_insert111 _4299_/Q gnd _3971_/A vdd BUFX2
XBUFX2_insert133 _3294_/Q gnd _3255_/A vdd BUFX2
XBUFX2_insert100 _3758_/Y gnd _4005_/B vdd BUFX2
XBUFX2_insert188 _4326_/Q gnd _2472_/A vdd BUFX2
XBUFX2_insert155 _4316_/Q gnd _2100_/B vdd BUFX2
XBUFX2_insert166 _3500_/Q gnd _3434_/A vdd BUFX2
X_2440_ _2440_/A _2440_/B gnd _2440_/Y vdd NOR2X1
XBUFX2_insert144 _4319_/Q gnd _2239_/A vdd BUFX2
XBUFX2_insert177 _4301_/Q gnd _2642_/A vdd BUFX2
XBUFX2_insert199 _3516_/Q gnd _4045_/B vdd BUFX2
X_4110_ _4110_/A _4073_/B gnd _4112_/B vdd NOR2X1
X_4041_ _4041_/A _4039_/S _4045_/C gnd _4041_/Y vdd OAI21X1
X_2371_ _2371_/A _2371_/B gnd _2371_/Y vdd XNOR2X1
X_3756_ _3755_/Y _3751_/Y _3868_/S gnd _3760_/A vdd MUX2X1
X_3825_ _2330_/A _4005_/B _3825_/C gnd _3826_/C vdd OAI21X1
X_2569_ _2554_/A _2554_/B gnd _2569_/Y vdd NOR2X1
X_2707_ _2364_/B gnd _2707_/Y vdd INVX1
XSFILL38320x40100 gnd vdd FILL
X_3687_ _4190_/Q _3681_/B gnd _3687_/Y vdd NAND2X1
XSFILL7600x2100 gnd vdd FILL
X_2638_ _2727_/A gnd _2640_/B vdd INVX1
X_4308_ _4308_/Q _4325_/CLK _4071_/Y gnd vdd DFFPOSX1
X_4239_ _3794_/A _4255_/CLK _3623_/Y gnd vdd DFFPOSX1
XSFILL67440x28100 gnd vdd FILL
XSFILL53680x8100 gnd vdd FILL
XSFILL22800x12100 gnd vdd FILL
XSFILL52720x48100 gnd vdd FILL
X_3610_ _3610_/A _3604_/B gnd _3611_/C vdd NAND2X1
X_3541_ _4146_/A _3556_/B _3541_/C gnd _3541_/Y vdd OAI21X1
X_3472_ _3472_/A _3472_/B _3469_/C gnd _3510_/D vdd AOI21X1
X_2423_ _2420_/Y _2422_/Y gnd _2424_/B vdd NAND2X1
X_4024_ _4023_/Y _4022_/Y _4057_/C _4024_/D gnd _4025_/A vdd OAI22X1
X_2285_ _2177_/B _2177_/A gnd _3160_/C vdd OR2X2
X_2354_ _2032_/A _2354_/B gnd _2354_/Y vdd XNOR2X1
XBUFX2_insert0 _4328_/Q gnd _2193_/B vdd BUFX2
XSFILL68080x100 gnd vdd FILL
X_3739_ _3953_/A _3739_/B _3739_/C gnd _3739_/Y vdd AOI21X1
X_3808_ _3808_/A _3806_/Y _3812_/C _3805_/Y gnd _3808_/Y vdd OAI22X1
XSFILL67920x24100 gnd vdd FILL
X_2070_ _2087_/A _2068_/Y _2070_/C gnd _2070_/Y vdd OAI21X1
X_2972_ gnd gnd _2974_/A vdd INVX1
X_3455_ _3455_/A _3440_/B gnd _3457_/A vdd NAND2X1
X_3386_ _3309_/A _3386_/B gnd _3386_/Y vdd NAND2X1
X_3524_ _3926_/B gnd _3679_/B vdd INVX1
X_2406_ _2404_/Y _2488_/B gnd _2406_/Y vdd XNOR2X1
X_2199_ _2217_/C gnd _2202_/B vdd INVX1
X_2268_ _3913_/A _2288_/B gnd _2268_/Y vdd NOR2X1
X_2337_ _2275_/A _2337_/B gnd _2338_/D vdd AND2X2
X_4007_ _4175_/Q _4084_/B gnd _4009_/B vdd NOR2X1
XSFILL22320x24100 gnd vdd FILL
XSFILL38000x12100 gnd vdd FILL
X_3240_ gnd gnd _3240_/Y vdd INVX1
X_3171_ gnd _2886_/B gnd _3171_/Y vdd NAND2X1
X_2053_ _4438_/Q gnd _2053_/Y vdd INVX1
X_2122_ _2118_/Y _2122_/B gnd _2122_/Y vdd XNOR2X1
X_2955_ _2955_/A _3109_/B gnd _2956_/C vdd NAND2X1
X_2886_ gnd _2886_/B gnd _2888_/C vdd NAND2X1
X_3507_ _3426_/A _4255_/CLK _3494_/Y gnd vdd DFFPOSX1
XSFILL37840x18100 gnd vdd FILL
X_3438_ _4417_/B gnd _3438_/Y vdd INVX8
X_3369_ _3368_/Y _3362_/B _3306_/C gnd _3369_/Y vdd NAND3X1
X_4487_ _4454_/B _2363_/B gnd _4488_/C vdd NAND2X1
XSFILL22800x20100 gnd vdd FILL
XSFILL53360x22100 gnd vdd FILL
X_2671_ _2044_/A _2670_/Y gnd _2672_/C vdd NAND2X1
X_4410_ _4410_/A _4410_/B _4331_/Y gnd _4448_/D vdd AOI21X1
X_2740_ _2529_/A _2740_/B gnd _2740_/Y vdd NOR2X1
X_4272_ _4272_/Q _4325_/CLK _3939_/Y gnd vdd DFFPOSX1
X_3223_ _3221_/Y _3157_/B _3223_/C gnd _3223_/Y vdd OAI21X1
X_4341_ _4438_/Q gnd _4342_/B vdd INVX1
X_3154_ _3152_/Y _3154_/B _3154_/C gnd _3154_/Y vdd OAI21X1
X_3085_ _3084_/Y _3085_/B gnd _3085_/Y vdd NOR2X1
X_2105_ _2105_/A _2103_/A _2105_/C gnd _2105_/Y vdd OAI21X1
X_2036_ _2721_/A gnd data_out[4] vdd BUFX2
X_3987_ _3986_/Y _3987_/B _3991_/C _3984_/Y gnd _3987_/Y vdd OAI22X1
X_2938_ _2937_/Y _2934_/Y gnd _2938_/Y vdd NOR2X1
X_2869_ _2868_/Y _2810_/Y gnd _2870_/A vdd OR2X2
XSFILL67920x32100 gnd vdd FILL
XSFILL52880x10100 gnd vdd FILL
XSFILL6960x18100 gnd vdd FILL
X_3910_ _3910_/A _3842_/S _3845_/C gnd _3911_/A vdd OAI21X1
X_3841_ _3840_/Y _3839_/Y _3845_/C _3838_/Y gnd _3841_/Y vdd OAI22X1
X_2723_ _2661_/A gnd _2723_/Y vdd INVX1
X_3772_ _4237_/Q _3984_/B _3774_/B gnd _3772_/Y vdd MUX2X1
X_4324_ _4324_/Q _4325_/CLK _3859_/Y gnd vdd DFFPOSX1
XSFILL7920x26100 gnd vdd FILL
X_2654_ _2727_/B _2640_/B gnd _2654_/Y vdd NAND2X1
X_2585_ _2585_/A gnd _2586_/B vdd INVX1
X_3137_ gnd _3159_/B gnd _3159_/D gnd _3139_/A vdd AOI22X1
X_4186_ _3576_/C _4280_/CLK _3577_/Y gnd vdd DFFPOSX1
X_3206_ _3162_/A gnd gnd _3162_/D gnd _3206_/Y vdd AOI22X1
X_4255_ _4255_/Q _4255_/CLK _3656_/Y gnd vdd DFFPOSX1
XSFILL23280x16100 gnd vdd FILL
X_2019_ _2019_/A gnd adrs_bus[3] vdd BUFX2
X_3068_ gnd _2904_/B gnd _3069_/C vdd NAND2X1
XBUFX2_insert123 _3517_/Q gnd _4130_/C vdd BUFX2
XBUFX2_insert112 _4299_/Q gnd _2354_/B vdd BUFX2
XBUFX2_insert134 _3294_/Q gnd _3473_/A vdd BUFX2
XBUFX2_insert145 _4319_/Q gnd _2836_/A vdd BUFX2
XBUFX2_insert167 _3500_/Q gnd _4455_/A vdd BUFX2
XBUFX2_insert156 _4316_/Q gnd _2780_/B vdd BUFX2
XBUFX2_insert101 _3758_/Y gnd _3983_/B vdd BUFX2
XBUFX2_insert189 _4326_/Q gnd _2545_/A vdd BUFX2
XBUFX2_insert178 _4301_/Q gnd _3993_/A vdd BUFX2
X_2370_ _2370_/A _2370_/B gnd _2382_/A vdd NAND2X1
X_4040_ _3828_/A _3967_/B gnd _4040_/Y vdd NOR2X1
X_2706_ _2706_/A _2706_/B _2704_/Y _2706_/D gnd _2713_/B vdd AOI22X1
X_3755_ _3755_/A _3753_/Y _3754_/C _3752_/Y gnd _3755_/Y vdd OAI22X1
X_3824_ _3823_/Y _3824_/B _3868_/S gnd _3824_/Y vdd MUX2X1
X_3686_ _3538_/A _3704_/B _3686_/C gnd _4189_/D vdd OAI21X1
X_2499_ _2499_/A gnd _2499_/Y vdd INVX1
X_4307_ _4307_/Q _4325_/CLK _4060_/Y gnd vdd DFFPOSX1
X_2568_ _2556_/Y _2568_/B _2544_/Y gnd _2568_/Y vdd NAND3X1
X_2637_ _2637_/A gnd _2637_/Y vdd INVX1
XSFILL37840x26100 gnd vdd FILL
X_4169_ _3919_/B _4164_/B gnd _4170_/C vdd NOR2X1
X_4238_ _3783_/A _4204_/CLK _3621_/Y gnd vdd DFFPOSX1
XSFILL67440x44100 gnd vdd FILL
XSFILL38800x34100 gnd vdd FILL
X_3540_ _3531_/A _3555_/B _3996_/A gnd _3541_/C vdd OAI21X1
X_2353_ _2100_/B _2540_/A gnd _2355_/A vdd XNOR2X1
X_3471_ _2878_/A _3440_/B gnd _3472_/A vdd NAND2X1
X_2422_ _2309_/B _2422_/B gnd _2422_/Y vdd NAND2X1
XBUFX2_insert1 _4328_/Q gnd _2497_/A vdd BUFX2
X_2284_ _2776_/A _2712_/B gnd _2284_/Y vdd OR2X2
X_4023_ _3724_/A _3977_/S _4057_/C gnd _4023_/Y vdd OAI21X1
X_3738_ _4100_/A _3724_/B gnd _3739_/C vdd NOR2X1
X_3807_ _4208_/Q _3761_/S _3812_/C gnd _3808_/A vdd OAI21X1
X_3669_ _4262_/Q _3647_/B gnd _3669_/Y vdd NOR2X1
XSFILL67920x40100 gnd vdd FILL
X_2971_ _2971_/A _2971_/B _2971_/C _2971_/D gnd _2975_/B vdd OAI22X1
XSFILL53040x2100 gnd vdd FILL
X_3523_ _3926_/A gnd _3612_/B vdd INVX1
XSFILL7920x34100 gnd vdd FILL
X_2336_ _2275_/A _2337_/B gnd _2336_/Y vdd NOR2X1
X_3454_ _3454_/A _3494_/B _3460_/C gnd _3517_/D vdd AOI21X1
XSFILL53520x8100 gnd vdd FILL
X_3385_ _3379_/Y _3385_/B gnd _3385_/Y vdd NAND2X1
X_2405_ _2405_/A _2643_/A gnd _2488_/B vdd XNOR2X1
X_2198_ _2196_/Y _2190_/Y gnd _2217_/C vdd NAND2X1
X_2267_ _2265_/Y _2267_/B gnd _3189_/A vdd NOR2X1
X_4006_ _3794_/A _4255_/Q _3449_/A gnd _4006_/Y vdd MUX2X1
XSFILL37840x2100 gnd vdd FILL
XSFILL7280x8100 gnd vdd FILL
X_3170_ gnd gnd _3172_/A vdd INVX1
X_2052_ _2054_/A _2052_/B _2052_/C gnd _2016_/A vdd OAI21X1
X_2121_ _2121_/A _2119_/Y gnd _2122_/B vdd NAND2X1
XCLKBUF1_insert30 clock gnd _4314_/CLK vdd CLKBUF1
X_2885_ _2909_/A _2880_/A gnd _2886_/B vdd NOR2X1
X_2954_ gnd gnd _2956_/A vdd INVX1
XSFILL53520x100 gnd vdd FILL
X_3506_ _3424_/A _4287_/CLK _3492_/Y gnd vdd DFFPOSX1
X_4486_ _3379_/B gnd _4486_/Y vdd INVX1
X_2319_ _2850_/A _2513_/A gnd _2321_/C vdd NOR2X1
X_3437_ _3434_/A _3428_/A gnd _3407_/B vdd AND2X2
X_3368_ data_in[9] gnd _3368_/Y vdd INVX1
X_3299_ _3474_/A gnd _3299_/Y vdd INVX1
X_2670_ _2483_/A gnd _2670_/Y vdd INVX1
XSFILL7440x46100 gnd vdd FILL
X_4340_ _4339_/Y _4340_/B _4331_/Y gnd _4340_/Y vdd AOI21X1
XSFILL8080x12100 gnd vdd FILL
X_3153_ _3153_/A _3109_/B gnd _3154_/C vdd NAND2X1
X_3222_ gnd _2904_/B gnd _3223_/C vdd NAND2X1
X_2104_ _2104_/A _2105_/A gnd _2943_/C vdd XNOR2X1
X_4271_ _3936_/A _4287_/CLK _4271_/D gnd vdd DFFPOSX1
X_3084_ _3082_/Y _2888_/B _3084_/C gnd _3084_/Y vdd OAI21X1
X_2035_ _2035_/A gnd data_out[3] vdd BUFX2
X_2868_ _2868_/A _2868_/B _2868_/C gnd _2868_/Y vdd NAND3X1
X_3986_ _3584_/A _3449_/A _3991_/C gnd _3986_/Y vdd OAI21X1
X_2937_ _2937_/A _3157_/B _2936_/Y gnd _2937_/Y vdd OAI21X1
X_2799_ _2855_/A _2855_/B gnd _2858_/B vdd NAND2X1
X_4469_ _4472_/A _4026_/A gnd _4470_/C vdd NAND2X1
XSFILL38000x18100 gnd vdd FILL
X_3840_ _4052_/A _3842_/S _3845_/C gnd _3840_/Y vdd OAI21X1
X_3771_ _3771_/A _4125_/B _3771_/C gnd _4316_/D vdd AOI21X1
X_2722_ _2745_/B _2565_/B _2721_/Y _2661_/A gnd _2722_/Y vdd AOI22X1
X_4323_ _4323_/Q _4325_/CLK _3848_/Y gnd vdd DFFPOSX1
X_2653_ _2637_/Y _2652_/Y _2626_/Y gnd _2653_/Y vdd NAND3X1
X_2584_ _2840_/A _2582_/Y gnd _2584_/Y vdd NOR2X1
X_4185_ _3905_/A _4291_/CLK _4185_/D gnd vdd DFFPOSX1
X_3205_ _3203_/Y _3205_/B gnd _3209_/B vdd NAND2X1
X_3136_ _3135_/Y _3136_/B gnd _3136_/Y vdd NOR2X1
X_4254_ _3653_/A _4204_/CLK _4254_/D gnd vdd DFFPOSX1
X_3067_ gnd gnd _3069_/A vdd INVX1
X_2018_ _2058_/Y gnd adrs_bus[2] vdd BUFX2
X_3969_ _3968_/Y _3967_/Y _3975_/C _3966_/Y gnd _3970_/A vdd OAI22X1
XBUFX2_insert179 _4329_/Q gnd _3913_/A vdd BUFX2
XBUFX2_insert113 _4299_/Q gnd _2542_/A vdd BUFX2
XBUFX2_insert157 _4316_/Q gnd _3770_/A vdd BUFX2
XSFILL22800x26100 gnd vdd FILL
XBUFX2_insert135 _4322_/Q gnd _2716_/A vdd BUFX2
XBUFX2_insert168 _3500_/Q gnd _4493_/A vdd BUFX2
XBUFX2_insert146 _4319_/Q gnd _2119_/B vdd BUFX2
XBUFX2_insert102 _3758_/Y gnd _3803_/B vdd BUFX2
XBUFX2_insert124 _3517_/Q gnd _3997_/C vdd BUFX2
X_3823_ _3823_/A _3821_/Y _3789_/C _3820_/Y gnd _3823_/Y vdd OAI22X1
X_2705_ _2681_/A _2682_/A gnd _2706_/D vdd NAND2X1
X_3754_ _4219_/Q _3761_/S _3754_/C gnd _3755_/A vdd OAI21X1
X_2636_ _2634_/Y _2635_/Y _2636_/C gnd _2637_/A vdd NAND3X1
X_3685_ _3777_/A _3704_/B gnd _3686_/C vdd NAND2X1
XSFILL7120x18100 gnd vdd FILL
X_2498_ _2303_/B _2498_/B gnd _2499_/A vdd NOR2X1
X_2567_ _2566_/Y _2588_/B gnd _2568_/B vdd NOR2X1
X_4237_ _4237_/Q _4255_/CLK _3619_/Y gnd vdd DFFPOSX1
X_4306_ _4306_/Q _4321_/CLK _4306_/D gnd vdd DFFPOSX1
X_4168_ _4168_/A _4156_/B _4167_/Y gnd _4168_/Y vdd AOI21X1
X_4099_ _4099_/A _4055_/B gnd _4101_/B vdd NOR2X1
XSFILL37840x42100 gnd vdd FILL
X_3119_ _3119_/A gnd _3119_/C _3119_/D gnd _3120_/B vdd AOI22X1
XSFILL52880x16100 gnd vdd FILL
XSFILL67920x38100 gnd vdd FILL
X_2283_ _3858_/A _2455_/B gnd _2283_/Y vdd OR2X2
X_2352_ _2352_/A _2352_/B gnd _2900_/A vdd NOR2X1
X_3470_ _3441_/B data_in[13] gnd _3472_/B vdd NAND2X1
X_2421_ _2660_/A gnd _2422_/B vdd INVX1
XBUFX2_insert2 _4328_/Q gnd _2303_/A vdd BUFX2
X_4022_ _4022_/A _4022_/B gnd _4022_/Y vdd NOR2X1
X_3806_ _4018_/A _3810_/B gnd _3806_/Y vdd NOR2X1
X_3668_ _3635_/A _3674_/B _3668_/C gnd _4261_/D vdd AOI21X1
X_2619_ _2545_/A gnd _2623_/B vdd INVX1
X_3599_ _3733_/A _3599_/B _3598_/Y gnd _3599_/Y vdd OAI21X1
X_3737_ _3737_/A _3720_/B _3737_/C gnd _3737_/Y vdd AOI21X1
XSFILL7600x14100 gnd vdd FILL
XSFILL38000x26100 gnd vdd FILL
X_2970_ gnd gnd _2971_/C vdd INVX1
X_3453_ _3450_/A data_in[6] gnd _3494_/B vdd NAND2X1
X_3522_ _3308_/Y gnd _3532_/A vdd INVX4
X_2266_ _2303_/A _2287_/B gnd _2267_/B vdd AND2X2
X_2335_ _2290_/A _2290_/B gnd _2338_/B vdd AND2X2
X_3384_ _3363_/A _3384_/B _3383_/Y gnd _3385_/B vdd NAND3X1
X_2404_ _2401_/Y _2488_/A _2404_/C gnd _2404_/Y vdd AOI21X1
X_2197_ _2192_/Y _2196_/Y gnd _3207_/C vdd XNOR2X1
XSFILL23280x100 gnd vdd FILL
XFILL72240x12100 gnd vdd FILL
X_4005_ _4005_/A _4005_/B _4005_/C gnd _4302_/D vdd AOI21X1
XSFILL22800x34100 gnd vdd FILL
XSFILL53360x36100 gnd vdd FILL
X_2120_ _2119_/A _2119_/B gnd _2121_/A vdd NAND2X1
X_2051_ _3971_/A _2054_/A gnd _2052_/C vdd NAND2X1
XCLKBUF1_insert31 clock gnd _4204_/CLK vdd CLKBUF1
XSFILL38960x100 gnd vdd FILL
X_2884_ _3474_/A _2873_/A gnd _2909_/A vdd OR2X2
X_2953_ _2953_/A _2953_/B gnd _2968_/A vdd NOR2X1
X_3505_ _3422_/A _3508_/CLK _3505_/D gnd vdd DFFPOSX1
X_4485_ _4455_/A _4483_/Y _4485_/C gnd _4403_/B vdd OAI21X1
X_3436_ _3436_/A _3426_/A gnd _4495_/A vdd AND2X2
XSFILL37840x50100 gnd vdd FILL
X_2318_ _2046_/A _2506_/A gnd _2318_/Y vdd AND2X2
X_3298_ _2878_/A _2873_/A gnd _3339_/A vdd OR2X2
X_2249_ _2247_/Y _2249_/B gnd _3057_/A vdd NOR2X1
X_3367_ _3339_/A _3409_/B _3367_/C gnd _3370_/B vdd OAI21X1
XSFILL52880x24100 gnd vdd FILL
XSFILL67920x46100 gnd vdd FILL
X_4270_ _4270_/Q _4280_/CLK _3935_/Y gnd vdd DFFPOSX1
XSFILL68560x12100 gnd vdd FILL
X_2103_ _2103_/A _2102_/Y gnd _2104_/A vdd NOR2X1
X_3152_ gnd gnd _3152_/Y vdd INVX1
X_3221_ gnd gnd _3221_/Y vdd INVX1
X_3083_ gnd _2886_/B gnd _3084_/C vdd NAND2X1
X_2034_ _2821_/A gnd data_out[2] vdd BUFX2
X_3985_ _3537_/C _4084_/B gnd _3987_/B vdd NOR2X1
X_2798_ _2855_/B _2855_/A gnd _2798_/Y vdd OR2X2
X_2867_ _2865_/Y _2032_/A _2867_/C gnd _2868_/A vdd AOI21X1
XSFILL7120x8100 gnd vdd FILL
X_2936_ gnd _2904_/B gnd _2936_/Y vdd NAND2X1
X_4399_ _4396_/C _4447_/Q _4399_/C gnd _4402_/B vdd NAND3X1
X_3419_ _3434_/A _3418_/Y gnd _3316_/B vdd NOR2X1
X_4468_ _3337_/B gnd _4468_/Y vdd INVX1
XSFILL37360x2100 gnd vdd FILL
XSFILL7600x22100 gnd vdd FILL
XSFILL37840x8100 gnd vdd FILL
X_3770_ _3770_/A _4125_/B _4026_/C gnd _3771_/C vdd OAI21X1
X_2652_ _2651_/Y _2652_/B gnd _2652_/Y vdd AND2X2
X_2721_ _2721_/A gnd _2721_/Y vdd INVX1
X_3204_ _3204_/A _3138_/B _2287_/Y _2962_/D gnd _3205_/B vdd AOI22X1
X_2583_ _2840_/A _2582_/Y gnd _2587_/B vdd NAND2X1
X_4253_ _3984_/B _4255_/CLK _3652_/Y gnd vdd DFFPOSX1
X_4322_ _4322_/Q _4300_/CLK _4322_/D gnd vdd DFFPOSX1
X_4184_ _3570_/C _4280_/CLK _4184_/D gnd vdd DFFPOSX1
X_3135_ _3135_/A _3157_/B _3134_/Y gnd _3135_/Y vdd OAI21X1
X_2017_ _2017_/A gnd adrs_bus[1] vdd BUFX2
XFILL72240x6100 gnd vdd FILL
X_3066_ _3066_/A _3154_/B _3065_/Y gnd _3070_/B vdd OAI21X1
X_3968_ _4219_/Q _3975_/B _3975_/C gnd _3968_/Y vdd OAI21X1
X_2919_ _2918_/Y _2877_/A gnd _3119_/D vdd AND2X2
XFILL72240x20100 gnd vdd FILL
X_3899_ _4111_/A _3849_/S _3829_/C gnd _3899_/Y vdd OAI21X1
XBUFX2_insert158 _4307_/Q gnd _2554_/A vdd BUFX2
XBUFX2_insert103 _3758_/Y gnd _4125_/B vdd BUFX2
XBUFX2_insert114 _4299_/Q gnd _2290_/B vdd BUFX2
XBUFX2_insert125 _3517_/Q gnd _4045_/C vdd BUFX2
XSFILL68080x24100 gnd vdd FILL
XBUFX2_insert147 _4319_/Q gnd _2721_/A vdd BUFX2
XBUFX2_insert169 _4304_/Q gnd _4026_/A vdd BUFX2
XBUFX2_insert136 _4322_/Q gnd _2375_/A vdd BUFX2
XSFILL22800x42100 gnd vdd FILL
XSFILL22960x6100 gnd vdd FILL
X_3822_ _4225_/Q _3877_/B _3818_/C gnd _3823_/A vdd OAI21X1
X_2704_ _2550_/A _2554_/A gnd _2704_/Y vdd OR2X2
X_3684_ _3684_/A _3706_/B _3683_/Y gnd _3684_/Y vdd OAI21X1
X_3753_ _3681_/A _3810_/B gnd _3753_/Y vdd NOR2X1
X_2635_ _2721_/A _2661_/A gnd _2635_/Y vdd XNOR2X1
XSFILL67600x18100 gnd vdd FILL
X_2497_ _2497_/A gnd _2498_/B vdd INVX1
X_4167_ _4297_/Q _4156_/B gnd _4167_/Y vdd NOR2X1
X_4236_ _3973_/A _4314_/CLK _3617_/Y gnd vdd DFFPOSX1
X_2566_ _2581_/B _2565_/Y _2561_/Y gnd _2566_/Y vdd NAND3X1
X_4305_ _4305_/Q _4320_/CLK _4305_/D gnd vdd DFFPOSX1
X_4098_ _4279_/Q _4098_/B _4098_/S gnd _4101_/D vdd MUX2X1
X_3118_ _3162_/A gnd gnd _3162_/D gnd _3120_/A vdd AOI22X1
X_3049_ gnd _3159_/B gnd _3159_/D gnd _3051_/A vdd AOI22X1
XSFILL52880x32100 gnd vdd FILL
X_2420_ _2309_/A _2419_/Y gnd _2420_/Y vdd NAND2X1
X_4021_ _4272_/Q _4288_/Q _4054_/S gnd _4024_/D vdd MUX2X1
X_2282_ _2040_/A _2251_/B gnd _3094_/C vdd OR2X2
X_2351_ _2339_/Y _2351_/B gnd _2352_/B vdd NAND2X1
XBUFX2_insert3 _4328_/Q gnd _2758_/A vdd BUFX2
XSFILL7920x48100 gnd vdd FILL
X_3805_ _4017_/A _3657_/A _3761_/S gnd _3805_/Y vdd MUX2X1
X_3736_ _3877_/A _3720_/B gnd _3737_/C vdd NOR2X1
X_3667_ _3667_/A _3674_/B gnd _3668_/C vdd NOR2X1
X_2618_ _2616_/Y _2617_/Y _2618_/C gnd _2625_/C vdd AOI21X1
X_2549_ _2549_/A _2546_/Y _2547_/Y _2548_/Y gnd _2578_/A vdd OAI22X1
X_3598_ _4063_/A _3599_/B gnd _3598_/Y vdd NAND2X1
X_4219_ _4219_/Q _4204_/CLK _3715_/Y gnd vdd DFFPOSX1
XSFILL7600x30100 gnd vdd FILL
X_3521_ _3746_/A _3508_/CLK _3521_/D gnd vdd DFFPOSX1
X_3452_ _3991_/C _3443_/B gnd _3454_/A vdd NAND2X1
X_3383_ _3382_/Y _3362_/B _3306_/C gnd _3383_/Y vdd NAND3X1
X_2403_ _2403_/A _2402_/Y gnd _2404_/C vdd NOR2X1
X_2196_ _2193_/Y _2195_/Y gnd _2196_/Y vdd NOR2X1
X_2265_ _2303_/A _2287_/B gnd _2265_/Y vdd NOR2X1
X_2334_ _2290_/A _2290_/B gnd _2338_/A vdd NOR2X1
XSFILL53040x16100 gnd vdd FILL
X_4004_ _2060_/B _3983_/B _4048_/C gnd _4005_/C vdd OAI21X1
X_3719_ _3538_/A _3719_/B _3718_/Y gnd _3719_/Y vdd AOI21X1
XSFILL68080x32100 gnd vdd FILL
X_2050_ _2050_/A gnd _2052_/B vdd INVX1
XSFILL8080x26100 gnd vdd FILL
X_2952_ _2950_/Y _2888_/B _2952_/C gnd _2953_/A vdd OAI21X1
XCLKBUF1_insert32 clock gnd _4325_/CLK vdd CLKBUF1
X_2883_ _2603_/Y gnd _2888_/A vdd INVX1
XSFILL67600x26100 gnd vdd FILL
X_3366_ _3366_/A gnd _3367_/C vdd INVX1
X_3504_ _3420_/A _3508_/CLK _3504_/D gnd vdd DFFPOSX1
X_4484_ _4455_/A _2465_/A gnd _4485_/C vdd NAND2X1
X_3435_ _3436_/A _3424_/A gnd _3393_/B vdd AND2X2
X_2317_ _2608_/A _2506_/A gnd _2317_/Y vdd NOR2X1
X_2179_ _2179_/A _2179_/B gnd _2179_/Y vdd NAND2X1
X_3297_ _3297_/A gnd _3301_/C vdd INVX1
X_2248_ _2281_/A _2489_/A gnd _2249_/B vdd AND2X2
XSFILL52880x40100 gnd vdd FILL
X_3220_ _3218_/Y _3154_/B _3220_/C gnd _3220_/Y vdd OAI21X1
X_2033_ _2100_/B gnd data_out[1] vdd BUFX2
X_2102_ _2105_/C gnd _2102_/Y vdd INVX1
X_3151_ _3150_/Y _3151_/B gnd _3166_/A vdd NOR2X1
X_3082_ gnd gnd _3082_/Y vdd INVX1
X_3984_ _4237_/Q _3984_/B _3449_/A gnd _3984_/Y vdd MUX2X1
X_2935_ gnd gnd _2937_/A vdd INVX1
X_2866_ _2826_/A _2866_/B _2866_/C gnd _2867_/C vdd OAI21X1
X_2797_ _2797_/A gnd _2855_/B vdd INVX1
X_4398_ _4398_/A _4417_/B gnd _4446_/D vdd AND2X2
X_3418_ _3418_/A gnd _3418_/Y vdd INVX1
X_4467_ _4472_/A _4465_/Y _4467_/C gnd _4365_/B vdd OAI21X1
X_3349_ _3363_/A _3349_/B _3348_/Y gnd _3349_/Y vdd NAND3X1
XSFILL38000x50100 gnd vdd FILL
X_2651_ _2651_/A _2650_/Y gnd _2651_/Y vdd NOR2X1
X_2720_ _2658_/A gnd _2745_/B vdd INVX1
X_2582_ _2582_/A gnd _2582_/Y vdd INVX1
X_4183_ _4095_/A _4215_/CLK _3568_/Y gnd vdd DFFPOSX1
X_4252_ _4252_/Q _4291_/CLK _3650_/Y gnd vdd DFFPOSX1
X_3203_ gnd _3159_/B gnd _3159_/D gnd _3203_/Y vdd AOI22X1
X_4321_ _4321_/Q _4321_/CLK _4321_/D gnd vdd DFFPOSX1
X_3134_ gnd _2904_/B gnd _3134_/Y vdd NAND2X1
XSFILL67440x4100 gnd vdd FILL
X_2016_ _2016_/A gnd adrs_bus[0] vdd BUFX2
X_3065_ _2436_/Y _3109_/B gnd _3065_/Y vdd NAND2X1
X_3898_ _4110_/A _3861_/B gnd _3900_/B vdd NOR2X1
X_3967_ _3681_/A _3967_/B gnd _3967_/Y vdd NOR2X1
X_2918_ _3474_/A _2873_/A gnd _2918_/Y vdd NOR2X1
X_2849_ _2849_/A _2795_/B _2846_/Y gnd _2854_/A vdd AOI21X1
XBUFX2_insert115 _4327_/Q gnd _2699_/A vdd BUFX2
XBUFX2_insert104 _3758_/Y gnd _3972_/B vdd BUFX2
XBUFX2_insert159 _4307_/Q gnd _2800_/B vdd BUFX2
XSFILL68080x40100 gnd vdd FILL
XBUFX2_insert126 _3517_/Q gnd _4079_/C vdd BUFX2
XBUFX2_insert137 _4322_/Q gnd _2211_/B vdd BUFX2
XSFILL7440x100 gnd vdd FILL
XBUFX2_insert148 _4319_/Q gnd _2130_/B vdd BUFX2
X_3752_ _3966_/A _3966_/B _3752_/S gnd _3752_/Y vdd MUX2X1
X_3821_ _3821_/A _3777_/B gnd _3821_/Y vdd NOR2X1
X_2703_ _2551_/A _2703_/B gnd _2706_/B vdd NAND2X1
X_3683_ _4188_/Q _3706_/B gnd _3683_/Y vdd NAND2X1
XSFILL67600x34100 gnd vdd FILL
X_2634_ _2660_/A _2658_/A gnd _2634_/Y vdd XNOR2X1
X_2565_ _2564_/Y _2565_/B _2579_/B _2837_/A gnd _2565_/Y vdd AOI22X1
XSFILL52560x12100 gnd vdd FILL
X_4304_ _4304_/Q _4300_/CLK _4304_/D gnd vdd DFFPOSX1
X_2496_ _2496_/A _2495_/Y _2485_/Y gnd _2502_/A vdd OAI21X1
X_4166_ _3708_/A _4170_/B _4165_/Y gnd _4166_/Y vdd AOI21X1
X_3117_ _3115_/Y _3117_/B gnd _3117_/Y vdd NAND2X1
X_4235_ _4235_/Q _4300_/CLK _3615_/Y gnd vdd DFFPOSX1
X_4097_ _4096_/Y _4097_/B _4101_/C _4097_/D gnd _4097_/Y vdd OAI22X1
X_3048_ _3048_/A _3048_/B gnd _3056_/B vdd NOR2X1
XSFILL7600x28100 gnd vdd FILL
X_2350_ _2350_/A _2349_/Y gnd _2351_/B vdd NOR2X1
X_4020_ _4019_/Y _4018_/Y _3975_/C _4017_/Y gnd _4020_/Y vdd OAI22X1
X_2281_ _2281_/A _2489_/A gnd _2281_/Y vdd OR2X2
XBUFX2_insert4 _3579_/Y gnd _3596_/B vdd BUFX2
X_3735_ _3635_/A _3732_/B _3734_/Y gnd _3735_/Y vdd AOI21X1
X_3804_ _3804_/A _3803_/B _3804_/C gnd _3804_/Y vdd AOI21X1
X_2617_ _2681_/A _2682_/A gnd _2617_/Y vdd NAND2X1
X_2548_ _2575_/A _2547_/B gnd _2548_/Y vdd AND2X2
X_3666_ _3733_/A _3675_/B _3666_/C gnd _4260_/D vdd AOI21X1
X_3597_ _3945_/A _3596_/B _3597_/C gnd _3597_/Y vdd OAI21X1
XFILL72240x26100 gnd vdd FILL
X_4149_ _4288_/Q _4156_/B gnd _4150_/C vdd NOR2X1
X_2479_ _2479_/A gnd _2479_/Y vdd INVX1
X_4218_ _3610_/A _4215_/CLK _4218_/D gnd vdd DFFPOSX1
XSFILL22800x6100 gnd vdd FILL
XSFILL37520x28100 gnd vdd FILL
XSFILL22480x6100 gnd vdd FILL
X_3520_ _3520_/Q _4255_/CLK _3445_/Y gnd vdd DFFPOSX1
X_3451_ _3449_/Y _3450_/Y _3460_/C gnd _3451_/Y vdd AOI21X1
X_3382_ data_in[11] gnd _3382_/Y vdd INVX1
X_2333_ _2329_/Y _2330_/Y _2333_/C _2333_/D gnd _2333_/Y vdd OAI22X1
X_2402_ _2395_/A gnd _2402_/Y vdd INVX1
X_2264_ _2262_/Y _2264_/B gnd _3167_/A vdd NOR2X1
X_2195_ _2194_/Y gnd _2195_/Y vdd INVX1
X_4003_ _4003_/A _4003_/B _4058_/S gnd _4005_/A vdd MUX2X1
XSFILL53040x32100 gnd vdd FILL
X_3649_ _4252_/Q _3649_/B gnd _3650_/C vdd NOR2X1
X_3718_ _3990_/A _3719_/B gnd _3718_/Y vdd NOR2X1
XSFILL23760x50100 gnd vdd FILL
XCLKBUF1_insert22 clock gnd _4215_/CLK vdd CLKBUF1
XCLKBUF1_insert33 clock gnd _3508_/CLK vdd CLKBUF1
X_2951_ gnd _2886_/B gnd _2952_/C vdd NAND2X1
X_2882_ _2871_/Y _2971_/B _2882_/C _2971_/D gnd _2882_/Y vdd OAI22X1
X_3503_ _3418_/A _3508_/CLK _3486_/Y gnd vdd DFFPOSX1
X_4483_ _3372_/B gnd _4483_/Y vdd INVX1
XSFILL67600x42100 gnd vdd FILL
X_3365_ _3372_/A _3365_/B gnd _3365_/Y vdd NAND2X1
X_3434_ _3434_/A _3422_/A gnd _3386_/B vdd AND2X2
X_3296_ _3379_/A gnd _3363_/A vdd INVX4
X_2316_ _2310_/Y _2316_/B gnd _2316_/Y vdd NOR2X1
XSFILL52560x20100 gnd vdd FILL
X_2178_ _2545_/B _2545_/A gnd _2179_/B vdd OR2X2
X_2247_ _2281_/A _2489_/A gnd _2247_/Y vdd NOR2X1
XSFILL7600x36100 gnd vdd FILL
X_3150_ _3150_/A _2888_/B _3149_/Y gnd _3150_/Y vdd OAI21X1
X_2032_ _2032_/A gnd data_out[0] vdd BUFX2
X_3081_ _3081_/A _2971_/B _3080_/Y _2971_/D gnd _3085_/B vdd OAI22X1
X_2101_ _2866_/B _2100_/B gnd _2105_/C vdd NAND2X1
X_3983_ _3983_/A _3983_/B _3982_/Y gnd _3983_/Y vdd AOI21X1
X_2865_ _2354_/B gnd _2865_/Y vdd INVX1
X_2934_ _2932_/Y _3154_/B _2934_/C gnd _2934_/Y vdd OAI21X1
X_2796_ _2796_/A _2796_/B gnd _2810_/B vdd NOR2X1
X_4466_ _4472_/A _2413_/A gnd _4467_/C vdd NAND2X1
XFILL72240x34100 gnd vdd FILL
X_4397_ _4394_/Y _4397_/B _4397_/C gnd _4398_/A vdd OAI21X1
X_3279_ _2878_/A _3278_/Y gnd _3279_/Y vdd NAND2X1
X_3417_ _3436_/A _3416_/Y gnd _3309_/B vdd NOR2X1
X_3348_ _3347_/Y _3362_/B _3306_/C gnd _3348_/Y vdd NAND3X1
X_2650_ _2655_/A _2337_/B _2649_/Y gnd _2650_/Y vdd OAI21X1
X_2581_ _2579_/Y _2581_/B _2580_/Y gnd _2581_/Y vdd AOI21X1
X_4320_ _4320_/Q _4320_/CLK _4320_/D gnd vdd DFFPOSX1
X_3202_ _3201_/Y _3202_/B gnd _3210_/B vdd NOR2X1
X_3133_ gnd gnd _3135_/A vdd INVX1
X_4251_ _3961_/B _4300_/CLK _3648_/Y gnd vdd DFFPOSX1
X_4182_ _4084_/A _4267_/CLK _4182_/D gnd vdd DFFPOSX1
XSFILL53040x40100 gnd vdd FILL
X_3064_ gnd gnd _3066_/A vdd INVX1
X_2848_ _2697_/A _2847_/Y gnd _2849_/A vdd NOR2X1
X_3897_ _3897_/A _3897_/B _3849_/S gnd _3897_/Y vdd MUX2X1
X_2917_ _3162_/A _2917_/B _2917_/C _3162_/D gnd _2922_/A vdd AOI22X1
X_3966_ _3966_/A _3966_/B _3975_/B gnd _3966_/Y vdd MUX2X1
X_2779_ _2779_/A _2757_/Y _2767_/Y gnd _2785_/C vdd AOI21X1
X_4449_ _4449_/Q _4320_/CLK _4417_/Y gnd vdd DFFPOSX1
XBUFX2_insert116 _4327_/Q gnd _2044_/A vdd BUFX2
XBUFX2_insert105 _3758_/Y gnd _3903_/B vdd BUFX2
XBUFX2_insert149 _4310_/Q gnd _2363_/B vdd BUFX2
XBUFX2_insert127 _3285_/Y gnd _3379_/A vdd BUFX2
XBUFX2_insert138 _4322_/Q gnd _2281_/A vdd BUFX2
XSFILL52880x46100 gnd vdd FILL
X_2702_ _2551_/A _2570_/A gnd _2706_/A vdd OR2X2
X_3751_ _3750_/Y _3751_/B _3812_/C _3747_/Y gnd _3751_/Y vdd OAI22X1
X_3682_ _3532_/A _3681_/B _3682_/C gnd _3682_/Y vdd OAI21X1
X_3820_ _3820_/A _3820_/B _3774_/B gnd _3820_/Y vdd MUX2X1
XSFILL8080x50100 gnd vdd FILL
X_2495_ _2511_/A _2482_/C gnd _2495_/Y vdd AND2X2
X_2633_ _2664_/A _2632_/Y gnd _2636_/C vdd NOR2X1
X_2564_ _2127_/A gnd _2564_/Y vdd INVX1
X_4303_ _4303_/Q _4320_/CLK _4303_/D gnd vdd DFFPOSX1
XSFILL67600x50100 gnd vdd FILL
X_4096_ _4096_/A _4098_/S _4101_/C gnd _4096_/Y vdd OAI21X1
X_4234_ _3921_/A _4280_/CLK _4234_/D gnd vdd DFFPOSX1
X_3116_ _3116_/A _3138_/B _2283_/Y _2962_/D gnd _3117_/B vdd AOI22X1
X_4165_ _3897_/B _4170_/B gnd _4165_/Y vdd NOR2X1
X_3047_ _3047_/A _3157_/B _3047_/C gnd _3048_/A vdd OAI21X1
X_3949_ _3635_/A _3947_/B _3949_/C gnd _4277_/D vdd AOI21X1
XSFILL7600x44100 gnd vdd FILL
XSFILL22800x100 gnd vdd FILL
XSFILL38160x4100 gnd vdd FILL
X_2280_ _2330_/A _2330_/B gnd _2280_/Y vdd OR2X2
XBUFX2_insert5 _3579_/Y gnd _3604_/B vdd BUFX2
X_3803_ _2239_/A _3803_/B _3825_/C gnd _3804_/C vdd OAI21X1
X_2616_ _2681_/A _2682_/A gnd _2616_/Y vdd OR2X2
X_3734_ _4078_/A _3732_/B gnd _3734_/Y vdd NOR2X1
X_3665_ _3665_/A _3675_/B gnd _3666_/C vdd NOR2X1
X_2478_ _2462_/Y _2478_/B gnd _2482_/A vdd NAND2X1
X_2547_ _2575_/A _2547_/B gnd _2547_/Y vdd NOR2X1
X_3596_ _4052_/A _3596_/B gnd _3597_/C vdd NAND2X1
X_4217_ _3906_/A _4291_/CLK _3609_/Y gnd vdd DFFPOSX1
X_4079_ _4078_/Y _4077_/Y _4079_/C _4079_/D gnd _4079_/Y vdd OAI22X1
XFILL72240x42100 gnd vdd FILL
X_4148_ _3544_/A _4143_/B _4148_/C gnd _4287_/D vdd AOI21X1
XSFILL38160x10100 gnd vdd FILL
XSFILL68080x46100 gnd vdd FILL
X_2401_ _2401_/A _2399_/Y _2390_/Y gnd _2401_/Y vdd OAI21X1
X_3450_ _3450_/A data_in[5] gnd _3450_/Y vdd NAND2X1
X_3381_ _3339_/A _3409_/B _3381_/C gnd _3384_/B vdd OAI21X1
X_2332_ _2375_/A _2375_/B gnd _2333_/D vdd AND2X2
X_2263_ _2263_/A _2483_/A gnd _2264_/B vdd AND2X2
X_2194_ _2700_/B _2193_/B gnd _2194_/Y vdd NAND2X1
X_4002_ _4001_/Y _4002_/B _4045_/C _4002_/D gnd _4003_/A vdd OAI22X1
XSFILL52560x18100 gnd vdd FILL
X_3717_ _3684_/A _3739_/B _3717_/C gnd _4220_/D vdd AOI21X1
X_3579_ _3530_/B _3578_/Y gnd _3579_/Y vdd NAND2X1
X_3648_ _3532_/A _3647_/B _3648_/C gnd _3648_/Y vdd AOI21X1
XCLKBUF1_insert34 clock gnd _4280_/CLK vdd CLKBUF1
XCLKBUF1_insert23 clock gnd _4320_/CLK vdd CLKBUF1
X_2881_ _2881_/A _2881_/B gnd _2971_/D vdd NAND2X1
X_2950_ gnd gnd _2950_/Y vdd INVX1
X_3502_ _3416_/A _3508_/CLK _3484_/Y gnd vdd DFFPOSX1
X_4482_ _4455_/A _4480_/Y _4482_/C gnd _4396_/B vdd OAI21X1
X_3433_ _3436_/A _3420_/A gnd _3379_/B vdd AND2X2
X_2246_ _2246_/A _2246_/B gnd _3035_/A vdd NOR2X1
X_3295_ _3295_/A _3295_/B gnd _3295_/Y vdd NAND2X1
X_3364_ _3358_/Y _3363_/Y gnd _3364_/Y vdd NAND2X1
X_2315_ _2311_/Y _2312_/Y _2315_/C _2315_/D gnd _2316_/B vdd OAI22X1
X_2177_ _2177_/A _2177_/B gnd _2179_/A vdd NAND2X1
XSFILL7280x10100 gnd vdd FILL
XSFILL53680x100 gnd vdd FILL