*SPEF "IEEE 1481.1999"
*DESIGN "program_counter"
*DATE "17:06:00 Monday June 08, 2020"
*VENDOR "unknown"
*PROGRAM "qrouter"
*VERSION "unknown"
*DESIGN_FLOW "qflow"
*DIVIDER /
*DELIMITER :
*BUS_DELIMITER <>
*T_UNIT 1 PS
*C_UNIT 1 FF
*R_UNIT 1 OHM
*L_UNIT 1 HENRY

*NAME_MAP
*1 _16_
*2 _161_
*3 _191_
*4 _231_
*5 _202_
*6 _227_
*7 _241_
*8 _236_
*9 _220_
*10 _196_
*11 _162_
*12 _215_
*13 _211_
*14 _174_
*15 _164_
*16 _169_
*17 _180_
*18 _185_
*19 _86_
*20 _111_
*21 _194_
*22 _189_
*23 _160_
*24 _231_
*25 _227_
*26 _220_
*27 _236_
*28 _241_
*29 _200_
*30 _215_
*31 _211_
*32 _112_
*33 _178_
*34 _172_
*35 _167_
*36 _87__bF_buf3
*37 BUFX2_insert6
*38 _122_
*39 _143_
*40 _144_
*41 _141_
*42 _140_
*43 _116_
*44 _117_
*45 _87__bF_buf4
*46 BUFX2_insert5
*47 _123_
*48 _129_
*49 _128_
*50 _120_
*51 _119_
*52 _125_
*53 _126_
*54 clock_bF_buf3
*55 CLKBUF1_insert1
*56 _274_
*57 _271_
*58 _286_
*59 _272_
*60 _290_
*61 _273_
*62 _287_
*63 clock_bF_buf4
*64 CLKBUF1_insert0
*65 _260_
*66 _261_
*67 _268_
*68 _276_
*69 _284_
*70 _269_
*71 _285_
*72 _87__bF_buf0
*73 BUFX2_insert9
*74 _114_
*75 _113_
*76 _134_
*77 _135_
*78 _138_
*79 _137_
*80 _87__bF_buf1
*81 BUFX2_insert8
*82 _132_
*83 _131_
*84 _155_
*85 _156_
*86 _159_
*87 _158_
*88 _87__bF_buf2
*89 BUFX2_insert7
*90 _153_
*91 _152_
*92 _150_
*93 _149_
*94 _147_
*95 _146_
*96 clock_bF_buf0
*97 CLKBUF1_insert4
*98 _259_
*99 _288_
*100 _280_
*101 _289_
*102 _281_
*103 _275_
*104 clock_bF_buf1
*105 CLKBUF1_insert3
*106 _277_
*107 _279_
*108 _263_
*109 _264_
*110 _262_
*111 _278_
*112 clock_bF_buf2
*113 CLKBUF1_insert2
*114 _265_
*115 _266_
*116 _282_
*117 _270_
*118 _283_
*119 _267_
*120 pc_in[1]
*121 _115_
*122 _167_
*123 _166_
*124 _171_
*125 _170_
*126 _165_
*127 pc_in[5]
*128 _127_
*129 _187_
*130 _189_
*131 _188_
*132 _192_
*133 _193_
*134 pc_in[9]
*135 _211_
*136 _139_
*137 _209_
*138 _217_
*139 _208_
*140 _213_
*141 _84__bF_buf3
*142 BUFX2_insert10
*143 _230_
*144 _226_
*145 _219_
*146 _235_
*147 _240_
*148 _87_
*149 _112_
*150 BUFX2_insert9
*151 BUFX2_insert7
*152 BUFX2_insert8
*153 BUFX2_insert5
*154 BUFX2_insert6
*155 clock
*156 CLKBUF1_insert3
*157 CLKBUF1_insert2
*158 CLKBUF1_insert1
*159 CLKBUF1_insert4
*160 CLKBUF1_insert0
*161 pc_in[0]
*162 _170_
*163 _171_
*164 _107_
*165 _166_
*166 _165_
*167 _5_
*168 _145_
*169 _219_
*170 _147_
*171 _222_
*172 _224_
*173 _218_
*174 pc_in[13]
*175 _233_
*176 _234_
*177 _229_
*178 _151_
*179 _231_
*180 _84_
*181 _109_
*182 BUFX2_insert10
*183 BUFX2_insert12
*184 BUFX2_insert11
*185 BUFX2_insert13
*186 _84__bF_buf0
*187 BUFX2_insert13
*188 _214_
*189 _210_
*190 _200_
*191 _203_
*192 _84__bF_buf1
*193 BUFX2_insert12
*194 _112_
*195 _162_
*196 _189_
*197 _194_
*198 _84__bF_buf2
*199 BUFX2_insert11
*200 _178_
*201 _172_
*202 _181_
*203 _167_
*204 pc_in[2]
*205 _170_
*206 _171_
*207 _118_
*208 _172_
*209 _93_
*210 _121_
*211 _176_
*212 _186_
*213 _175_
*214 _123_
*215 _95_
*216 _124_
*217 _186_
*218 _182_
*219 _181_
*220 _126_
*221 pc_in[6]
*222 _130_
*223 _193_
*224 _192_
*225 _194_
*226 _101_
*227 _133_
*228 _135_
*229 _197_
*230 _198_
*231 _207_
*232 _103_
*233 _136_
*234 _138_
*235 _207_
*236 _204_
*237 _203_
*238 pc_in[10]
*239 _217_
*240 _215_
*241 _142_
*242 _213_
*243 pc_in[14]
*244 _236_
*245 _154_
*246 _233_
*247 _234_
*248 _24_
*249 _171_
*250 _172_
*251 _176_
*252 _175_
*253 _186_
*254 _36_
*255 _186_
*256 _187_
*257 _188_
*258 _192_
*259 _193_
*260 _42_
*261 _193_
*262 _194_
*263 _197_
*264 _198_
*265 _207_
*266 _53_
*267 _207_
*268 _217_
*269 _209_
*270 _213_
*271 _208_
*272 _61_
*273 _217_
*274 _218_
*275 _219_
*276 _222_
*277 _224_
*278 _67_
*279 _224_
*280 _225_
*281 _229_
*282 _234_
*283 _233_
*284 _82_
*285 _107_
*286 _162_
*287 _114_
*288 _163_
*289 _7_
*290 _148_
*291 _222_
*292 _224_
*293 _150_
*294 _13_
*295 _157_
*296 _159_
*297 _238_
*298 _239_
*299 _15_
*300 _160_
*301 _163_
*302 _182_
*303 _204_
*304 _75_
*305 _234_
*306 _235_
*307 _238_
*308 _239_
*309 opcode[1]
*310 _111_
*311 _108_
*312 _83_
*313 _108_
*314 _109_
*315 _161_
*316 opcode[0]
*317 _110_
*318 _109_
*319 _85_
*320 _110_
*321 _161_
*322 _111_
*323 pre_pc[0]
*324 _275_
*325 _162_
*326 _113_
*327 pre_pc[1]
*328 _276_
*329 _116_
*330 _164_
*331 pre_pc[2]
*332 _277_
*333 _169_
*334 _119_
*335 pc_in[3]
*336 _121_
*337 _178_
*338 pre_pc[3]
*339 _278_
*340 _174_
*341 _122_
*342 pc_in[4]
*343 _183_
*344 _124_
*345 pre_pc[4]
*346 _279_
*347 _125_
*348 _180_
*349 pre_pc[5]
*350 _280_
*351 _185_
*352 _128_
*353 pre_pc[6]
*354 _281_
*355 _191_
*356 _131_
*357 pc_in[7]
*358 _200_
*359 _133_
*360 pre_pc[7]
*361 _282_
*362 _196_
*363 _134_
*364 pc_in[8]
*365 _205_
*366 _136_
*367 pre_pc[8]
*368 _283_
*369 _202_
*370 _137_
*371 pre_pc[9]
*372 _284_
*373 _211_
*374 _140_
*375 _3_
*376 _142_
*377 _214_
*378 _144_
*379 pre_pc[10]
*380 _285_
*381 _143_
*382 _215_
*383 pc_in[11]
*384 _220_
*385 _145_
*386 pre_pc[11]
*387 _286_
*388 _220_
*389 _146_
*390 pc_in[12]
*391 _227_
*392 _148_
*393 pre_pc[12]
*394 _287_
*395 _149_
*396 _227_
*397 _9_
*398 _151_
*399 _230_
*400 _153_
*401 pre_pc[13]
*402 _288_
*403 _152_
*404 _231_
*405 pre_pc[14]
*406 _289_
*407 _155_
*408 _236_
*409 pc_in[15]
*410 _241_
*411 _157_
*412 pre_pc[15]
*413 _290_
*414 _241_
*415 _158_
*416 _28_
*417 _176_
*418 _177_
*419 _183_
*420 _29_
*421 _177_
*422 _178_
*423 _181_
*424 _46_
*425 _198_
*426 _199_
*427 _205_
*428 _47_
*429 _199_
*430 _203_
*431 _200_
*432 _55_
*433 _209_
*434 _210_
*435 _214_
*436 _68_
*437 _225_
*438 _230_
*439 _226_
*440 _88_
*441 _113_
*442 _114_
*443 _1_[0]
*444 _114_
*445 _275_
*446 _89_
*447 _115_
*448 _117_
*449 _90_
*450 _116_
*451 _117_
*452 _1_[1]
*453 _117_
*454 _276_
*455 _91_
*456 _118_
*457 _120_
*458 _92_
*459 _119_
*460 _120_
*461 _1_[2]
*462 _120_
*463 _277_
*464 _94_
*465 _122_
*466 _123_
*467 _1_[3]
*468 _123_
*469 _278_
*470 _96_
*471 _125_
*472 _126_
*473 _1_[4]
*474 _126_
*475 _279_
*476 _97_
*477 _127_
*478 _129_
*479 _98_
*480 _128_
*481 _129_
*482 _1_[5]
*483 _129_
*484 _280_
*485 _99_
*486 _130_
*487 _132_
*488 _100_
*489 _131_
*490 _132_
*491 _1_[6]
*492 _132_
*493 _281_
*494 _102_
*495 _134_
*496 _135_
*497 _1_[7]
*498 _135_
*499 _282_
*500 _104_
*501 _137_
*502 _138_
*503 _1_[8]
*504 _138_
*505 _283_
*506 _105_
*507 _139_
*508 _141_
*509 _2_
*510 _140_
*511 _141_
*512 _1_[9]
*513 _141_
*514 _284_
*515 _4_
*516 _143_
*517 _144_
*518 _1_[10]
*519 _144_
*520 _285_
*521 _6_
*522 _146_
*523 _147_
*524 _1_[11]
*525 _147_
*526 _286_
*527 _8_
*528 _149_
*529 _150_
*530 _1_[12]
*531 _150_
*532 _287_
*533 _10_
*534 _152_
*535 _153_
*536 _1_[13]
*537 _153_
*538 _288_
*539 _11_
*540 _154_
*541 _156_
*542 _12_
*543 _155_
*544 _156_
*545 _1_[14]
*546 _156_
*547 _289_
*548 _14_
*549 _158_
*550 _159_
*551 _1_[15]
*552 _159_
*553 _290_
*554 _17_
*555 _162_
*556 _163_
*557 _0_[0]
*558 _163_
*559 _259_
*560 _18_
*561 _164_
*562 _168_
*563 _19_
*564 _165_
*565 _168_
*566 _20_
*567 _166_
*568 _167_
*569 _21_
*570 _167_
*571 _168_
*572 _0_[1]
*573 _168_
*574 _260_
*575 _22_
*576 _169_
*577 _173_
*578 _23_
*579 _170_
*580 _173_
*581 _25_
*582 _172_
*583 _173_
*584 _0_[2]
*585 _173_
*586 _261_
*587 _26_
*588 _174_
*589 _179_
*590 _27_
*591 _175_
*592 _179_
*593 _30_
*594 _178_
*595 _179_
*596 _0_[3]
*597 _179_
*598 _262_
*599 _31_
*600 _180_
*601 _184_
*602 _32_
*603 _181_
*604 _182_
*605 _33_
*606 _182_
*607 _183_
*608 _34_
*609 _183_
*610 _184_
*611 _0_[4]
*612 _184_
*613 _263_
*614 _35_
*615 _185_
*616 _190_
*617 _37_
*618 _187_
*619 _190_
*620 _38_
*621 _188_
*622 _189_
*623 _39_
*624 _189_
*625 _190_
*626 _0_[5]
*627 _190_
*628 _264_
*629 _40_
*630 _191_
*631 _195_
*632 _41_
*633 _192_
*634 _195_
*635 _43_
*636 _194_
*637 _195_
*638 _0_[6]
*639 _195_
*640 _265_
*641 _44_
*642 _196_
*643 _201_
*644 _45_
*645 _197_
*646 _201_
*647 _48_
*648 _200_
*649 _201_
*650 _0_[7]
*651 _201_
*652 _266_
*653 _49_
*654 _202_
*655 _206_
*656 _50_
*657 _203_
*658 _204_
*659 _51_
*660 _204_
*661 _205_
*662 _52_
*663 _205_
*664 _206_
*665 _0_[8]
*666 _206_
*667 _267_
*668 _54_
*669 _208_
*670 _212_
*671 _56_
*672 _210_
*673 _212_
*674 _57_
*675 _211_
*676 _212_
*677 _0_[9]
*678 _212_
*679 _268_
*680 _58_
*681 _213_
*682 _216_
*683 _59_
*684 _214_
*685 _216_
*686 _60_
*687 _215_
*688 _216_
*689 _0_[10]
*690 _216_
*691 _269_
*692 _62_
*693 _218_
*694 _221_
*695 _63_
*696 _219_
*697 _221_
*698 _64_
*699 _220_
*700 _221_
*701 _0_[11]
*702 _221_
*703 _270_
*704 _65_
*705 _222_
*706 _223_
*707 _66_
*708 _223_
*709 _228_
*710 _69_
*711 _226_
*712 _228_
*713 _70_
*714 _227_
*715 _228_
*716 _0_[12]
*717 _228_
*718 _271_
*719 _71_
*720 _229_
*721 _232_
*722 _72_
*723 _230_
*724 _232_
*725 _73_
*726 _231_
*727 _232_
*728 _0_[13]
*729 _232_
*730 _272_
*731 _74_
*732 _233_
*733 _237_
*734 _76_
*735 _235_
*736 _237_
*737 _77_
*738 _236_
*739 _237_
*740 _0_[14]
*741 _237_
*742 _273_
*743 _78_
*744 _238_
*745 _242_
*746 _79_
*747 _239_
*748 _240_
*749 _80_
*750 _240_
*751 _242_
*752 _81_
*753 _241_
*754 _242_
*755 _0_[15]
*756 _242_
*757 _274_
*758 _106_[0]
*759 _259_
*760 _243_
*761 pc_out[0]
*762 _243_
*763 _106_[1]
*764 _260_
*765 _244_
*766 pc_out[1]
*767 _244_
*768 _106_[2]
*769 _261_
*770 _245_
*771 pc_out[2]
*772 _245_
*773 _106_[3]
*774 _262_
*775 _246_
*776 pc_out[3]
*777 _246_
*778 _106_[4]
*779 _263_
*780 _247_
*781 pc_out[4]
*782 _247_
*783 _106_[5]
*784 _264_
*785 _248_
*786 pc_out[5]
*787 _248_
*788 _106_[6]
*789 _265_
*790 _249_
*791 pc_out[6]
*792 _249_
*793 _106_[7]
*794 _266_
*795 _250_
*796 pc_out[7]
*797 _250_
*798 _106_[8]
*799 _267_
*800 _251_
*801 pc_out[8]
*802 _251_
*803 _106_[9]
*804 _268_
*805 _252_
*806 pc_out[9]
*807 _252_
*808 _106_[10]
*809 _269_
*810 _253_
*811 pc_out[10]
*812 _253_
*813 _106_[11]
*814 _270_
*815 _254_
*816 pc_out[11]
*817 _254_
*818 _106_[12]
*819 _271_
*820 _255_
*821 pc_out[12]
*822 _255_
*823 _106_[13]
*824 _272_
*825 _256_
*826 pc_out[13]
*827 _256_
*828 _106_[14]
*829 _273_
*830 _257_
*831 pc_out[14]
*832 _257_
*833 _106_[15]
*834 _274_
*835 _258_
*836 pc_out[15]
*837 _258_

*PORTS
*120 I
*127 I
*134 I
*155 I
*161 I
*174 I
*204 I
*221 I
*238 I
*243 I
*309 I
*316 I
*335 I
*342 I
*357 I
*364 I
*383 I
*390 I
*409 I
*761 O
*766 O
*771 O
*776 O
*781 O
*786 O
*791 O
*796 O
*801 O
*806 O
*811 O
*816 O
*821 O
*826 O
*831 O
*836 O

*D_NET *1 0.00521112
*CONN
*I *2:Y O *D _161
*I *3:B I *L 0
*I *4:D I *L 0
*I *5:B I *L 0
*I *6:D I *L 0
*I *7:D I *L 0
*I *8:D I *L 0
*I *9:D I *L 0
*I *10:B I *L 0
*I *11:D I *L 0
*I *12:D I *L 0
*I *13:D I *L 0
*I *14:B I *L 0
*I *15:B I *L 0
*I *16:B I *L 0
*I *17:B I *L 0
*I *18:B I *L 0
*CAP
1 1_1 7.8e-05
2 1_2 0.00023664
3 1_3 2.04e-05
4 1_4 0.00043488
5 1_5 5.76e-05
6 1_6 8.4e-06
7 1_7 8.736e-05
8 1_8 0.0004176
9 1_9 0.000168
10 1_10 0.0001632
11 1_11 2.04e-05
12 1_12 0.00050184
13 1_13 3.264e-05
14 1_14 8.736e-05
15 1_15 0.00044856
16 1_16 0.0001344
17 1_17 0.0002448
18 1_18 0.0001344
19 1_19 0
20 1_20 4.032e-05
21 1_21 0.0004284
22 1_22 8.64e-05
23 1_23 2.688e-05
24 1_24 0.00018144
25 1_25 6.12e-05
26 1_26 6.72e-05
27 1_27 0.0002448
28 1_28 0.00020256
29 1_29 0
30 1_30 0.00031872
31 1_31 0.00027672
*RES
1 *2:Y 1_1 0.606667
2 1_1 1_2 2.70667
3 1_2 1_3 0.233333
4 1_3 *3:B 0
5 1_3 1_4 5.41333
6 1_4 1_5 0.373333
7 1_5 *4:D 0
8 1_4 1_6 0.233333
9 1_6 1_7 2.42667
10 1_7 1_8 3.92
11 1_8 *5:B 0
12 1_7 1_9 4.66667
13 1_9 1_10 1.86667
14 1_10 1_11 0.233333
15 1_11 *6:D 0
16 1_11 1_12 5.74
17 1_12 1_13 0.373333
18 1_13 *7:D 0
19 1_12 1_14 2.42667
20 1_14 *8:D 0
21 1_9 1_15 5.46
22 1_15 *9:D 0
23 1_6 1_16 3.73333
24 1_16 1_17 2.8
25 1_17 *10:B 0
26 1_16 1_18 3.73333
27 1_18 1_19 0
28 1_19 *11:D 0
29 1_18 1_20 1.12
30 1_20 1_21 4.9
31 1_21 1_22 0.56
32 1_22 *12:D 0
33 1_21 1_23 0.746667
34 1_23 *13:D 0
35 1_20 1_24 5.04
36 1_24 1_25 0.7
37 1_25 *14:B 0
38 1_24 1_26 1.86667
39 1_26 1_27 2.8
40 1_27 *15:B 0
41 1_26 1_28 1.82667
42 1_28 1_29 0
43 1_29 *16:B 0
44 1_28 1_30 4.85333
45 1_30 *17:B 0
46 1_1 1_31 6.02
47 1_31 *18:B 0
*END
*D_NET *19 0.00428064
*CONN
*I *20:Y O *D _111
*I *21:B I *L 0
*I *22:B I *L 0
*I *23:A I *L 0
*I *24:A I *L 0
*I *25:A I *L 0
*I *26:A I *L 0
*I *27:A I *L 0
*I *28:A I *L 0
*I *29:B I *L 0
*I *30:A I *L 0
*I *31:A I *L 0
*I *32:B I *L 0
*I *33:B I *L 0
*I *34:D I *L 0
*I *35:D I *L 0
*CAP
1 19_1 0.0001308
2 19_2 4.704e-05
3 19_3 1.344e-05
4 19_4 0.00010752
5 19_5 0.0003024
6 19_6 2.04e-05
7 19_7 6.96e-05
8 19_8 0.00011424
9 19_9 0.0001224
10 19_10 0.000168
11 19_11 4.704e-05
12 19_12 0.00014232
13 19_13 0.000588
14 19_14 0.00024
15 19_15 0
16 19_16 5.376e-05
17 19_17 0.00049608
18 19_18 9.384e-05
19 19_19 0.00016128
20 19_20 8.16e-05
21 19_21 2.04e-05
22 19_22 4.032e-05
23 19_23 0.00041424
24 19_24 2.04e-05
25 19_25 0.00027048
26 19_26 6.12e-05
27 19_27 8.088e-05
28 19_28 0.0001188
29 19_29 0.00025416
*RES
1 *20:Y 19_1 1.63333
2 19_1 19_2 1.30667
3 19_2 *21:B 0
4 19_1 19_3 0.373333
5 19_3 19_4 2.98667
6 19_4 *22:B 0
7 19_3 19_5 3.73333
8 19_5 19_6 0.233333
9 19_6 *23:A 0
10 19_6 19_7 0.933333
11 19_7 19_8 3.17333
12 19_8 19_9 1.4
13 19_9 *24:A 0
14 19_8 19_10 4.66667
15 19_10 19_11 1.30667
16 19_11 19_12 2.28667
17 19_12 *25:A 0
18 19_11 19_13 6.44
19 19_13 *26:A 0
20 19_10 19_14 1.66667
21 19_14 19_15 0
22 19_15 *27:A 0
23 19_14 19_16 1.49333
24 19_16 *28:A 0
25 19_7 19_17 6.11333
26 19_17 19_18 1.07333
27 19_18 *29:B 0
28 19_17 19_19 4.48
29 19_19 19_20 0.933333
30 19_20 19_21 0.233333
31 19_21 *30:A 0
32 19_21 19_22 1.12
33 19_22 *31:A 0
34 19_19 19_23 5.50667
35 19_23 19_24 0.233333
36 19_24 *32:B 0
37 19_24 19_25 5.18
38 19_25 19_26 0.7
39 19_26 *33:B 0
40 19_25 19_27 1.91333
41 19_27 19_28 1.07333
42 19_28 *34:D 0
43 19_27 19_29 3.5
44 19_29 *35:D 0
*END
*D_NET *36 0.00113376
*CONN
*I *37:Y O *D BUFX2
*I *38:B I *L 0
*I *39:B I *L 0
*I *40:B I *L 0
*I *41:B I *L 0
*I *42:B I *L 0
*I *43:B I *L 0
*I *44:B I *L 0
*CAP
1 36_1 2.04e-05
2 36_2 7.344e-05
3 36_3 0.000192
4 36_4 6.048e-05
5 36_5 0
6 36_6 6.768e-05
7 36_7 4.032e-05
8 36_8 0.00016752
9 36_9 0.0002244
10 36_10 4.08e-05
11 36_11 0.0001728
12 36_12 7.392e-05
*RES
1 *37:Y 36_1 0.233333
2 36_1 36_2 0.84
3 36_2 *38:B 0
4 36_1 36_3 2.33333
5 36_3 36_4 1.68
6 36_4 36_5 0
7 36_5 *39:B 0
8 36_4 36_6 1.21333
9 36_6 *40:B 0
10 36_3 36_7 1.12
11 36_7 36_8 2.14667
12 36_8 *41:B 0
13 36_7 36_9 2.56667
14 36_9 36_10 0.466667
15 36_10 *42:B 0
16 36_10 36_11 1.12
17 36_11 *43:B 0
18 36_9 36_12 2.05333
19 36_12 *44:B 0
*END
*D_NET *45 0.00222768
*CONN
*I *46:Y O *D BUFX2
*I *47:B I *L 0
*I *48:B I *L 0
*I *49:B I *L 0
*I *50:B I *L 0
*I *51:B I *L 0
*I *52:B I *L 0
*I *53:B I *L 0
*CAP
1 45_1 0
2 45_2 8.784e-05
3 45_3 0.0004164
4 45_4 0.00011496
5 45_5 5.76e-05
6 45_6 7.44e-05
7 45_7 0.000222
8 45_8 0.0002496
9 45_9 6.12e-05
10 45_10 6.768e-05
11 45_11 0.00066312
12 45_12 0.00021288
*RES
1 *46:Y 45_1 0
2 45_1 45_2 1.77333
3 45_2 *47:B 0
4 45_1 45_3 4.9
5 45_3 45_4 2.19333
6 45_4 45_5 0.373333
7 45_5 *48:B 0
8 45_4 45_6 1.4
9 45_6 *49:B 0
10 45_3 45_7 5.83333
11 45_7 45_8 2.42667
12 45_8 *50:B 0
13 45_8 45_9 0.7
14 45_9 45_10 1.21333
15 45_10 *51:B 0
16 45_9 45_11 7.48667
17 45_11 *52:B 0
18 45_7 45_12 2.00667
19 45_12 *53:B 0
*END
*D_NET *54 0.00165624
*CONN
*I *55:Y O *D CLKBUF1
*I *56:CLK I *L 0
*I *57:CLK I *L 0
*I *58:CLK I *L 0
*I *59:CLK I *L 0
*I *60:CLK I *L 0
*I *61:CLK I *L 0
*I *62:CLK I *L 0
*CAP
1 54_1 0.00012096
2 54_2 0
3 54_3 0.0002856
4 54_4 0.0001428
5 54_5 0.0002856
6 54_6 2.04e-05
7 54_7 0.0001428
8 54_8 0.000306
9 54_9 2.04e-05
10 54_10 0.0001632
11 54_11 0.00016848
*RES
1 *55:Y 54_1 3.36
2 54_1 54_2 0
3 54_2 *56:CLK 0
4 54_2 54_3 3.26667
5 54_3 *57:CLK 0
6 54_3 54_4 1.63333
7 54_4 *58:CLK 0
8 54_4 54_5 3.26667
9 54_5 54_6 0.233333
10 54_6 *59:CLK 0
11 54_6 54_7 1.63333
12 54_7 54_8 3.5
13 54_8 54_9 0.233333
14 54_9 *60:CLK 0
15 54_9 54_10 1.86667
16 54_10 *61:CLK 0
17 54_7 54_11 4.01333
18 54_11 *62:CLK 0
*END
*D_NET *63 0.00159384
*CONN
*I *64:Y O *D CLKBUF1
*I *65:CLK I *L 0
*I *66:CLK I *L 0
*I *67:CLK I *L 0
*I *68:CLK I *L 0
*I *69:CLK I *L 0
*I *70:CLK I *L 0
*I *71:CLK I *L 0
*CAP
1 63_1 2.04e-05
2 63_2 0.0002448
3 63_3 2.04e-05
4 63_4 0.0001836
5 63_5 8.064e-05
6 63_6 0
7 63_7 9.384e-05
8 63_8 0.000204
9 63_9 0.0001428
10 63_10 0.00014808
11 63_11 6.12e-05
12 63_12 0.00039408
*RES
1 *64:Y 63_1 0.233333
2 63_1 63_2 2.8
3 63_2 63_3 0.233333
4 63_3 *65:CLK 0
5 63_3 63_4 2.1
6 63_4 *66:CLK 0
7 63_1 63_5 2.24
8 63_5 63_6 0
9 63_6 *67:CLK 0
10 63_6 63_7 1.07333
11 63_7 63_8 2.33333
12 63_8 *68:CLK 0
13 63_8 63_9 1.63333
14 63_9 *69:CLK 0
15 63_7 63_10 3.78
16 63_10 63_11 0.7
17 63_11 *70:CLK 0
18 63_10 63_12 4.94667
19 63_12 *71:CLK 0
*END
*D_NET *72 0.00081
*CONN
*I *73:Y O *D BUFX2
*I *74:B I *L 0
*I *75:B I *L 0
*I *76:B I *L 0
*I *77:B I *L 0
*I *78:B I *L 0
*I *79:B I *L 0
*CAP
1 72_1 2.04e-05
2 72_2 0.00010824
3 72_3 0
4 72_4 6.768e-05
5 72_5 0.00026424
6 72_6 0
7 72_7 2.688e-05
8 72_8 4.08e-05
9 72_9 0.00011424
10 72_10 0.0001272
11 72_11 4.032e-05
*RES
1 *73:Y 72_1 0.233333
2 72_1 72_2 2.00667
3 72_2 72_3 0
4 72_3 *74:B 0
5 72_2 72_4 1.21333
6 72_4 *75:B 0
7 72_1 72_5 4.34
8 72_5 72_6 0
9 72_6 *76:B 0
10 72_5 72_7 0.746667
11 72_7 72_8 0.466667
12 72_8 *77:B 0
13 72_7 72_9 3.17333
14 72_9 72_10 1.02667
15 72_10 *78:B 0
16 72_9 72_11 1.12
17 72_11 *79:B 0
*END
*D_NET *80 0.00121416
*CONN
*I *81:Y O *D BUFX2
*I *82:B I *L 0
*I *83:B I *L 0
*I *84:B I *L 0
*I *85:B I *L 0
*I *86:B I *L 0
*I *87:B I *L 0
*CAP
1 80_1 0.0001632
2 80_2 2.04e-05
3 80_3 0.0001584
4 80_4 0.00027816
5 80_5 0
6 80_6 9.456e-05
7 80_7 2.04e-05
8 80_8 0.00031152
9 80_9 8.64e-05
10 80_10 8.112e-05
*RES
1 *81:Y 80_1 1.86667
2 80_1 80_2 0.233333
3 80_2 *82:B 0
4 80_2 80_3 1.02667
5 80_3 *83:B 0
6 80_2 80_4 4.06
7 80_4 80_5 0
8 80_5 *84:B 0
9 80_4 80_6 1.96
10 80_6 80_7 0.233333
11 80_7 *85:B 0
12 80_7 80_8 5.32
13 80_8 80_9 0.56
14 80_9 *86:B 0
15 80_8 80_10 1.58667
16 80_10 *87:B 0
*END
*D_NET *88 0.00120576
*CONN
*I *89:Y O *D BUFX2
*I *90:B I *L 0
*I *91:B I *L 0
*I *92:B I *L 0
*I *93:B I *L 0
*I *94:B I *L 0
*I *95:B I *L 0
*CAP
1 88_1 2.04e-05
2 88_2 0.00016968
3 88_3 0
4 88_4 6.768e-05
5 88_5 0.00027648
6 88_6 0
7 88_7 4.728e-05
8 88_8 4.08e-05
9 88_9 0.000462
10 88_10 5.76e-05
11 88_11 6.384e-05
*RES
1 *89:Y 88_1 0.233333
2 88_1 88_2 2.38
3 88_2 88_3 0
4 88_3 *90:B 0
5 88_2 88_4 1.21333
6 88_4 *91:B 0
7 88_1 88_5 6.34667
8 88_5 88_6 0
9 88_6 *92:B 0
10 88_5 88_7 0.98
11 88_7 88_8 0.466667
12 88_8 *93:B 0
13 88_7 88_9 5.83333
14 88_9 88_10 0.373333
15 88_10 *94:B 0
16 88_9 88_11 1.77333
17 88_11 *95:B 0
*END
*D_NET *96 0.00110136
*CONN
*I *97:Y O *D CLKBUF1
*I *98:CLK I *L 0
*I *99:CLK I *L 0
*I *100:CLK I *L 0
*I *101:CLK I *L 0
*I *102:CLK I *L 0
*I *103:CLK I *L 0
*CAP
1 96_1 6.048e-05
2 96_2 0
3 96_3 0.0001836
4 96_4 0.0003672
5 96_5 4.08e-05
6 96_6 0.00014112
7 96_7 4.08e-05
8 96_8 0.00020976
9 96_9 5.76e-05
*RES
1 *97:Y 96_1 1.68
2 96_1 96_2 0
3 96_2 *98:CLK 0
4 96_2 96_3 2.1
5 96_3 *99:CLK 0
6 96_2 96_4 4.2
7 96_4 96_5 0.466667
8 96_5 *100:CLK 0
9 96_4 96_6 3.92
10 96_6 96_7 0.466667
11 96_7 *101:CLK 0
12 96_6 96_8 3.82667
13 96_8 *102:CLK 0
14 96_2 96_9 0.373333
15 96_9 *103:CLK 0
*END
*D_NET *104 0.00159096
*CONN
*I *105:Y O *D CLKBUF1
*I *106:CLK I *L 0
*I *107:CLK I *L 0
*I *108:CLK I *L 0
*I *109:CLK I *L 0
*I *110:CLK I *L 0
*I *111:CLK I *L 0
*CAP
1 104_1 0.00023664
2 104_2 2.04e-05
3 104_3 0.0001224
4 104_4 4.08e-05
5 104_5 0.00022176
6 104_6 6.12e-05
7 104_7 0.0001896
8 104_8 0.0003876
9 104_9 6.12e-05
10 104_10 0.00024936
*RES
1 *105:Y 104_1 2.70667
2 104_1 *106:CLK 0
3 104_1 104_2 0.233333
4 104_2 104_3 1.4
5 104_3 104_4 0.466667
6 104_4 *107:CLK 0
7 104_3 104_5 6.16
8 104_5 104_6 0.7
9 104_6 *108:CLK 0
10 104_5 104_7 3.26667
11 104_7 *109:CLK 0
12 104_2 104_8 4.43333
13 104_8 104_9 0.7
14 104_9 *110:CLK 0
15 104_8 104_10 5.92667
16 104_10 *111:CLK 0
*END
*D_NET *112 0.00152688
*CONN
*I *113:Y O *D CLKBUF1
*I *114:CLK I *L 0
*I *115:CLK I *L 0
*I *116:CLK I *L 0
*I *117:CLK I *L 0
*I *118:CLK I *L 0
*I *119:CLK I *L 0
*CAP
1 112_1 8.4e-06
2 112_2 6.048e-05
3 112_3 5.76e-05
4 112_4 0.00049824
5 112_5 0.0001344
6 112_6 9.456e-05
7 112_7 0.000408
8 112_8 0.0002652
*RES
1 *113:Y 112_1 0.233333
2 112_1 112_2 1.68
3 112_2 *114:CLK 0
4 112_2 112_3 0.373333
5 112_3 *115:CLK 0
6 112_3 112_4 5.41333
7 112_4 *116:CLK 0
8 112_1 112_5 3.73333
9 112_5 112_6 1.96
10 112_6 *117:CLK 0
11 112_6 112_7 4.66667
12 112_7 *118:CLK 0
13 112_5 112_8 3.03333
14 112_8 *119:CLK 0
*END
*D_NET *120 0.0013488
*CONN
*P *120 O
*I *121:A I *L 0
*I *122:C I *L 0
*I *123:B I *L 0
*I *124:B I *L 0
*I *125:B I *L 0
*I *126:B I *L 0
*CAP
1 120_1 2.688e-05
2 120_2 0.00012096
3 120_3 8.136e-05
4 120_4 0.0002448
5 120_5 2.04e-05
6 120_6 0.0001296
7 120_7 8.4e-06
8 120_8 0.00022416
9 120_9 0.00023064
10 120_10 0.0002616
*RES
1 *120 120_1 0.746667
2 120_1 120_2 3.36
3 120_2 120_3 1.26
4 120_3 *121:A 0
5 120_2 120_4 2.8
6 120_4 120_5 0.233333
7 120_5 *122:C 0
8 120_5 120_6 0.84
9 120_6 *123:B 0
10 120_5 120_7 0.233333
11 120_7 120_8 2.89333
12 120_8 *124:B 0
13 120_7 120_9 3.40667
14 120_9 *125:B 0
15 120_1 120_10 2.70667
16 120_10 *126:B 0
*END
*D_NET *127 0.00084432
*CONN
*P *127 O
*I *128:A I *L 0
*I *129:A I *L 0
*I *130:A I *L 0
*I *131:A I *L 0
*I *132:B I *L 0
*I *133:A I *L 0
*CAP
1 127_1 0.00023664
2 127_2 2.04e-05
3 127_3 0.00016272
4 127_4 0
5 127_5 4.032e-05
6 127_6 6.12e-05
7 127_7 9.456e-05
8 127_8 2.04e-05
9 127_9 8.64e-05
10 127_10 0.00012168
*RES
1 *127 127_1 2.70667
2 127_1 127_2 0.233333
3 127_2 *128:A 0
4 127_2 127_3 2.52
5 127_3 127_4 0
6 127_4 *129:A 0
7 127_3 127_5 1.12
8 127_5 127_6 0.7
9 127_6 *130:A 0
10 127_5 127_7 1.96
11 127_7 127_8 0.233333
12 127_8 *131:A 0
13 127_8 127_9 0.56
14 127_9 *132:B 0
15 127_8 127_10 2.38
16 127_10 *133:A 0
*END
*D_NET *134 0.00108816
*CONN
*P *134 O
*I *135:B I *L 0
*I *136:A I *L 0
*I *137:A I *L 0
*I *138:A I *L 0
*I *139:A I *L 0
*I *140:B I *L 0
*CAP
1 134_1 6.12e-05
2 134_2 0.00041448
3 134_3 2.04e-05
4 134_4 4.08e-05
5 134_5 3.36e-05
6 134_6 0.00016848
7 134_7 2.04e-05
8 134_8 0.0001188
9 134_9 8.16e-05
10 134_10 2.04e-05
11 134_11 0.000108
*RES
1 *134 134_1 0.7
2 134_1 134_2 5.18
3 134_2 134_3 0.233333
4 134_3 *135:B 0
5 134_3 134_4 0.466667
6 134_4 134_5 0.933333
7 134_5 *136:A 0
8 134_4 134_6 4.01333
9 134_6 134_7 0.233333
10 134_7 *137:A 0
11 134_7 134_8 1.07333
12 134_8 *138:A 0
13 134_1 134_9 0.933333
14 134_9 134_10 0.233333
15 134_10 *139:A 0
16 134_10 134_11 2.33333
17 134_11 *140:B 0
*END
*D_NET *141 0.00169584
*CONN
*I *142:Y O *D BUFX2
*I *143:C I *L 0
*I *144:A I *L 0
*I *145:C I *L 0
*I *146:A I *L 0
*I *147:A I *L 0
*CAP
1 141_1 0.00014784
2 141_2 0.0001392
3 141_3 6.048e-05
4 141_4 0.0001224
5 141_5 0.0001008
6 141_6 2.04e-05
7 141_7 0.0001428
8 141_8 0.00061608
9 141_9 0.00034584
*RES
1 *142:Y 141_1 4.10667
2 141_1 141_2 1.30667
3 141_2 *143:C 0
4 141_1 141_3 1.68
5 141_3 141_4 1.4
6 141_4 *144:A 0
7 141_3 141_5 2.8
8 141_5 141_6 0.233333
9 141_6 141_7 1.63333
10 141_7 *145:C 0
11 141_6 141_8 7.04667
12 141_8 *146:A 0
13 141_5 141_9 5.27333
14 141_9 *147:A 0
*END
*D_NET *148 0.00086424
*CONN
*I *149:Y O *D _112
*I *150:A I *L 0
*I *151:A I *L 0
*I *152:A I *L 0
*I *153:A I *L 0
*I *154:A I *L 0
*CAP
1 148_1 0
2 148_2 2.016e-05
3 148_3 0.00012768
4 148_4 6.96e-05
5 148_5 0.00034464
6 148_6 5.76e-05
7 148_7 0.0001632
8 148_8 8.136e-05
*RES
1 *149:Y 148_1 0
2 148_1 148_2 0.56
3 148_2 148_3 3.54667
4 148_3 148_4 0.933333
5 148_4 *150:A 0
6 148_3 148_5 6.90667
7 148_5 *151:A 0
8 148_5 148_6 0.373333
9 148_6 *152:A 0
10 148_2 148_7 1.86667
11 148_7 *153:A 0
12 148_1 148_8 1.26
13 148_8 *154:A 0
*END
*D_NET *155 0.00263784
*CONN
*P *155 O
*I *156:A I *L 0
*I *157:A I *L 0
*I *158:A I *L 0
*I *159:A I *L 0
*I *160:A I *L 0
*CAP
1 155_1 0.0001428
2 155_2 0.0005436
3 155_3 0.0003468
4 155_4 0.00055776
5 155_5 0.00059064
6 155_6 2.04e-05
7 155_7 6.048e-05
8 155_8 0.0003552
9 155_9 2.016e-05
*RES
1 *155 155_1 1.63333
2 155_1 155_2 6.76667
3 155_2 155_3 3.96667
4 155_3 *156:A 0
5 155_2 155_4 15.4933
6 155_4 155_5 8.07333
7 155_5 155_6 0.233333
8 155_6 *157:A 0
9 155_6 155_7 1.68
10 155_7 *158:A 0
11 155_4 155_8 4.2
12 155_8 *159:A 0
13 155_1 155_9 0.56
14 155_9 *160:A 0
*END
*D_NET *161 0.00128592
*CONN
*P *161 O
*I *162:A I *L 0
*I *163:A I *L 0
*I *164:A I *L 0
*I *165:A I *L 0
*I *166:A I *L 0
*CAP
1 161_1 2.688e-05
2 161_2 0.00036072
3 161_3 4.08e-05
4 161_4 6.72e-05
5 161_5 8.4e-06
6 161_6 5.76e-05
7 161_7 0.00042024
8 161_8 0.0002772
9 161_9 2.688e-05
*RES
1 *161 161_1 0.746667
2 161_1 161_2 4.22
3 161_2 161_3 0.466667
4 161_3 *162:A 0
5 161_2 161_4 1.86667
6 161_4 161_5 0.233333
7 161_5 161_6 0.373333
8 161_6 *163:A 0
9 161_5 161_7 4.80667
10 161_7 *164:A 0
11 161_5 161_8 3.5
12 161_8 *165:A 0
13 161_1 161_9 0.746667
14 161_9 *166:A 0
*END
*D_NET *167 0.0008352
*CONN
*I *168:Y O *D _145
*I *169:A I *L 0
*I *170:A I *L 0
*I *171:A I *L 0
*I *172:A I *L 0
*I *173:B I *L 0
*CAP
1 167_1 9.84e-05
2 167_2 0.0001632
3 167_3 2.04e-05
4 167_4 8.4e-06
5 167_5 3.36e-05
6 167_6 0.00030576
7 167_7 0.0001584
8 167_8 4.704e-05
*RES
1 *168:Y 167_1 0.84
2 167_1 167_2 1.86667
3 167_2 167_3 0.233333
4 167_3 *169:A 0
5 167_3 167_4 0.233333
6 167_4 167_5 0.933333
7 167_5 *170:A 0
8 167_4 167_6 3.82667
9 167_6 *171:A 0
10 167_6 167_7 1.02667
11 167_7 *172:A 0
12 167_1 167_8 1.30667
13 167_8 *173:B 0
*END
*D_NET *174 0.00101184
*CONN
*P *174 O
*I *175:B I *L 0
*I *176:A I *L 0
*I *177:A I *L 0
*I *178:A I *L 0
*I *179:B I *L 0
*CAP
1 174_1 0.0002172
2 174_2 2.016e-05
3 174_3 0
4 174_4 8.808e-05
5 174_5 0.00041352
6 174_6 0
7 174_7 2.016e-05
8 174_8 8.4e-06
9 174_9 0.00024432
*RES
1 *174 174_1 1.96667
2 174_1 174_2 0.56
3 174_2 174_3 0
4 174_3 *175:B 0
5 174_2 174_4 1.44667
6 174_4 *176:A 0
7 174_1 174_5 6.48667
8 174_5 174_6 0
9 174_6 *177:A 0
10 174_6 174_7 0.56
11 174_7 174_8 0.233333
12 174_8 *178:A 0
13 174_7 174_9 3.45333
14 174_9 *179:B 0
*END
*D_NET *180 0.001176
*CONN
*I *181:Y O *D _109
*I *182:A I *L 0
*I *183:A I *L 0
*I *184:A I *L 0
*I *185:A I *L 0
*CAP
1 180_1 0.00033936
2 180_2 8.16e-05
3 180_3 0.00017472
4 180_4 0.00030552
5 180_5 0
6 180_6 3.36e-05
7 180_7 0.0002412
*RES
1 *181:Y 180_1 2.96
2 180_1 180_2 0.933333
3 180_2 *182:A 0
4 180_1 180_3 4.85333
5 180_3 180_4 4.15333
6 180_4 180_5 0
7 180_5 *183:A 0
8 180_4 180_6 0.933333
9 180_6 *184:A 0
10 180_3 180_7 2.47333
11 180_7 *185:A 0
*END
*D_NET *186 0.0004932
*CONN
*I *187:Y O *D BUFX2
*I *188:C I *L 0
*I *189:A I *L 0
*I *190:C I *L 0
*I *191:C I *L 0
*CAP
1 186_1 0.0001632
2 186_2 2.04e-05
3 186_3 7.344e-05
4 186_4 4.08e-05
5 186_5 0.0001008
6 186_6 0
7 186_7 9.456e-05
*RES
1 *187:Y 186_1 1.86667
2 186_1 186_2 0.233333
3 186_2 *188:C 0
4 186_2 186_3 0.84
5 186_3 186_4 0.466667
6 186_4 *189:A 0
7 186_3 186_5 2.8
8 186_5 186_6 0
9 186_6 *190:C 0
10 186_5 186_7 1.96
11 186_7 *191:C 0
*END
*D_NET *192 0.00096744
*CONN
*I *193:Y O *D BUFX2
*I *194:A I *L 0
*I *195:A I *L 0
*I *196:C I *L 0
*I *197:C I *L 0
*CAP
1 192_1 4.92e-05
2 192_2 0.0001152
3 192_3 2.04e-05
4 192_4 0.0001188
5 192_5 0.0003456
6 192_6 0.000102
7 192_7 0.00021624
*RES
1 *193:Y 192_1 0.7
2 192_1 192_2 1.86667
3 192_2 192_3 0.233333
4 192_3 *194:A 0
5 192_3 192_4 1.07333
6 192_4 *195:A 0
7 192_1 192_5 5.6
8 192_5 192_6 1.16667
9 192_6 *196:C 0
10 192_5 192_7 4.34
11 192_7 *197:C 0
*END
*D_NET *198 0.00082848
*CONN
*I *199:Y O *D BUFX2
*I *200:C I *L 0
*I *201:A I *L 0
*I *202:C I *L 0
*I *203:A I *L 0
*CAP
1 198_1 0.0001752
2 198_2 0
3 198_3 5.76e-05
4 198_4 5.376e-05
5 198_5 0.0002244
6 198_6 0.00031752
*RES
1 *199:Y 198_1 4.2
2 198_1 198_2 0
3 198_2 *200:C 0
4 198_2 198_3 0.373333
5 198_3 *201:A 0
6 198_1 198_4 1.49333
7 198_4 198_5 2.56667
8 198_5 *202:C 0
9 198_4 198_6 4.62
10 198_6 *203:A 0
*END
*D_NET *204 0.00055584
*CONN
*P *204 O
*I *205:C I *L 0
*I *206:C I *L 0
*I *207:A I *L 0
*I *208:C I *L 0
*CAP
1 204_1 0.00013104
2 204_2 0.000102
3 204_3 5.376e-05
4 204_4 2.04e-05
5 204_5 0.00010176
6 204_6 4.08e-05
7 204_7 0.00010608
*RES
1 *204 204_1 3.64
2 204_1 204_2 1.16667
3 204_2 *205:C 0
4 204_1 204_3 1.49333
5 204_3 204_4 0.233333
6 204_4 *206:C 0
7 204_4 204_5 1.49333
8 204_5 204_6 0.466667
9 204_6 *207:A 0
10 204_5 204_7 1.21333
11 204_7 *208:C 0
*END
*D_NET *209 0.00074832
*CONN
*I *210:Y O *D _121
*I *211:A I *L 0
*I *212:A I *L 0
*I *213:B I *L 0
*I *214:A I *L 0
*CAP
1 209_1 2.04e-05
2 209_2 0.00024
3 209_3 5.76e-05
4 209_4 0.0001728
5 209_5 0.00013536
6 209_6 4.08e-05
7 209_7 8.136e-05
*RES
1 *210:Y 209_1 0.233333
2 209_1 209_2 2.56667
3 209_2 209_3 0.373333
4 209_3 *211:A 0
5 209_2 209_4 1.12
6 209_4 *212:A 0
7 209_1 209_5 2.42667
8 209_5 209_6 0.466667
9 209_6 *213:B 0
10 209_5 209_7 1.26
11 209_7 *214:A 0
*END
*D_NET *215 0.0007284
*CONN
*I *216:Y O *D _124
*I *217:B I *L 0
*I *218:A I *L 0
*I *219:A I *L 0
*I *220:A I *L 0
*CAP
1 215_1 0.0002376
2 215_2 0.0001728
3 215_3 5.376e-05
4 215_4 0
5 215_5 3.36e-05
6 215_6 0
7 215_7 0.00023064
*RES
1 *216:Y 215_1 2.14667
2 215_1 215_2 1.12
3 215_2 *217:B 0
4 215_1 215_3 1.49333
5 215_3 215_4 0
6 215_4 *218:A 0
7 215_3 215_5 0.933333
8 215_5 215_6 0
9 215_6 *219:A 0
10 215_6 215_7 3.40667
11 215_7 *220:A 0
*END
*D_NET *221 0.00066888
*CONN
*P *221 O
*I *222:A I *L 0
*I *223:B I *L 0
*I *224:C I *L 0
*I *225:A I *L 0
*CAP
1 221_1 0.00033288
2 221_2 4.08e-05
3 221_3 3.36e-05
4 221_4 7.392e-05
5 221_5 8.16e-05
6 221_6 6.768e-05
7 221_7 3.84e-05
*RES
1 *221 221_1 4.24667
2 221_1 221_2 0.466667
3 221_2 *222:A 0
4 221_1 221_3 0.933333
5 221_3 221_4 2.05333
6 221_4 221_5 0.933333
7 221_5 *223:B 0
8 221_4 221_6 1.21333
9 221_6 *224:C 0
10 221_3 221_7 0.266667
11 221_7 *225:A 0
*END
*D_NET *226 0.00035808
*CONN
*I *227:Y O *D _133
*I *228:A I *L 0
*I *229:B I *L 0
*I *230:A I *L 0
*I *231:A I *L 0
*CAP
1 226_1 0.00015504
2 226_2 2.04e-05
3 226_3 6.768e-05
4 226_4 0
5 226_5 8.136e-05
6 226_6 0
7 226_7 3.36e-05
*RES
1 *227:Y 226_1 1.77333
2 226_1 226_2 0.233333
3 226_2 *228:A 0
4 226_2 226_3 1.21333
5 226_3 226_4 0
6 226_4 *229:B 0
7 226_4 226_5 1.26
8 226_5 226_6 0
9 226_6 *230:A 0
10 226_5 226_7 0.933333
11 226_7 *231:A 0
*END
*D_NET *232 0.0005652
*CONN
*I *233:Y O *D _136
*I *234:A I *L 0
*I *235:B I *L 0
*I *236:A I *L 0
*I *237:A I *L 0
*CAP
1 232_1 0.0001224
2 232_2 5.76e-05
3 232_3 4.032e-05
4 232_4 0
5 232_5 0.00019584
6 232_6 2.04e-05