* XSpice netlist created from SPICE and liberty sources by spi2xspice.py
*SPICE netlist created from verilog structural netlist module uProcessor by vlog2Spice (qflow)
** Start of included library /usr/local/share/qflow/tech/osu035/osu035_stdcells.sp
** End of included library /usr/local/share/qflow/tech/osu035/osu035_stdcells.sp
.subckt uProcessor a_vdd a_gnd a_adrs_bus_0_ a_adrs_bus_1_ a_adrs_bus_2_ a_adrs_bus_3_ a_adrs_bus_4_ a_adrs_bus_5_ a_adrs_bus_6_ a_adrs_bus_7_ a_adrs_bus_8_ a_adrs_bus_9_ a_adrs_bus_10_ a_adrs_bus_11_ a_adrs_bus_12_ a_adrs_bus_13_ a_adrs_bus_14_ a_adrs_bus_15_ a_clock a_data_in_0_ a_data_in_1_ a_data_in_2_ a_data_in_3_ a_data_in_4_ a_data_in_5_ a_data_in_6_ a_data_in_7_ a_data_in_8_ a_data_in_9_ a_data_in_10_ a_data_in_11_ a_data_in_12_ a_data_in_13_ a_data_in_14_ a_data_in_15_ a_data_out_0_ a_data_out_1_ a_data_out_2_ a_data_out_3_ a_data_out_4_ a_data_out_5_ a_data_out_6_ a_data_out_7_ a_data_out_8_ a_data_out_9_ a_data_out_10_ a_data_out_11_ a_data_out_12_ a_data_out_13_ a_data_out_14_ a_data_out_15_ a_mem_rd a_mem_wr a_reset
ABUFX2_insert301 [\internal_register_inst_07.ra_out\_1_] \internal_register_inst_07.ra_out_1_bF$buf0\ d_lut_BUFX2
ABUFX2_insert300 [\internal_register_inst_07.ra_out\_-1_] \internal_register_inst_07.ra_out_1_bF$buf1\ d_lut_BUFX2
ABUFX2_insert299 [\internal_register_inst_07.ra_out\_1_] \internal_register_inst_07.ra_out_1_bF$buf2\ d_lut_BUFX2
ABUFX2_insert298 [\internal_register_inst_07.ra_out\_-1_] \internal_register_inst_07.ra_out_1_bF$buf3\ d_lut_BUFX2
ABUFX2_insert297 [\internal_register_inst_07.ra_out\_1_] \internal_register_inst_07.ra_out_1_bF$buf4\ d_lut_BUFX2
ABUFX2_insert296 [reset] reset_bF$buf0 d_lut_BUFX2
ABUFX2_insert295 [reset] reset_bF$buf1 d_lut_BUFX2
ABUFX2_insert294 [reset] reset_bF$buf2 d_lut_BUFX2
ABUFX2_insert293 [reset] reset_bF$buf3 d_lut_BUFX2
ABUFX2_insert292 [reset] reset_bF$buf4 d_lut_BUFX2
ABUFX2_insert291 [reset] reset_bF$buf5 d_lut_BUFX2
ABUFX2_insert290 [\internal_register_inst_07.ra_out\_2_] \internal_register_inst_07.ra_out_4_bF$buf0\ d_lut_BUFX2
ABUFX2_insert289 [\internal_register_inst_07.ra_out\_4_] \internal_register_inst_07.ra_out_4_bF$buf1\ d_lut_BUFX2
ABUFX2_insert288 [\internal_register_inst_07.ra_out\_2_] \internal_register_inst_07.ra_out_4_bF$buf2\ d_lut_BUFX2
ABUFX2_insert287 [\internal_register_inst_07.ra_out\_4_] \internal_register_inst_07.ra_out_4_bF$buf3\ d_lut_BUFX2
ABUFX2_insert286 [\internal_register_inst_07.ra_out\_2_] \internal_register_inst_07.ra_out_4_bF$buf4\ d_lut_BUFX2
ABUFX2_insert285 [\instruction_decoder_inst_08.rBadrs\_1_] \instruction_decoder_inst_08.rBadrs_1_bF$buf0\ d_lut_BUFX2
ABUFX2_insert284 [\instruction_decoder_inst_08.rBadrs\_-1_] \instruction_decoder_inst_08.rBadrs_1_bF$buf1\ d_lut_BUFX2
ABUFX2_insert283 [\instruction_decoder_inst_08.rBadrs\_1_] \instruction_decoder_inst_08.rBadrs_1_bF$buf2\ d_lut_BUFX2
ABUFX2_insert282 [\instruction_decoder_inst_08.rBadrs\_-1_] \instruction_decoder_inst_08.rBadrs_1_bF$buf3\ d_lut_BUFX2
ABUFX2_insert281 [\instruction_decoder_inst_08.rBadrs\_1_] \instruction_decoder_inst_08.rBadrs_1_bF$buf4\ d_lut_BUFX2
ABUFX2_insert280 [\instruction_decoder_inst_08.rBadrs\_-1_] \instruction_decoder_inst_08.rBadrs_1_bF$buf5\ d_lut_BUFX2
ABUFX2_insert279 [\instruction_decoder_inst_08.rBadrs\_1_] \instruction_decoder_inst_08.rBadrs_1_bF$buf6\ d_lut_BUFX2
ABUFX2_insert278 [\instruction_decoder_inst_08.rBadrs\_-1_] \instruction_decoder_inst_08.rBadrs_1_bF$buf7\ d_lut_BUFX2
ABUFX2_insert277 [_747_] _747__bF$buf0 d_lut_BUFX2
ABUFX2_insert276 [_747_] _747__bF$buf1 d_lut_BUFX2
ABUFX2_insert275 [_747_] _747__bF$buf2 d_lut_BUFX2
ABUFX2_insert274 [_747_] _747__bF$buf3 d_lut_BUFX2
ABUFX2_insert273 [\internal_register_inst_07.ra_out\_5_] \internal_register_inst_07.ra_out_7_bF$buf0\ d_lut_BUFX2
ABUFX2_insert272 [\internal_register_inst_07.ra_out\_7_] \internal_register_inst_07.ra_out_7_bF$buf1\ d_lut_BUFX2
ABUFX2_insert271 [\internal_register_inst_07.ra_out\_5_] \internal_register_inst_07.ra_out_7_bF$buf2\ d_lut_BUFX2
ABUFX2_insert270 [\internal_register_inst_07.ra_out\_7_] \internal_register_inst_07.ra_out_7_bF$buf3\ d_lut_BUFX2
ABUFX2_insert269 [\internal_register_inst_07.ra_out\_5_] \internal_register_inst_07.ra_out_7_bF$buf4\ d_lut_BUFX2
ABUFX2_insert268 [\internal_register_inst_07.rb_out\_0_] \internal_register_inst_07.rb_out_0_bF$buf0\ d_lut_BUFX2
ABUFX2_insert267 [\internal_register_inst_07.rb_out\_-2_] \internal_register_inst_07.rb_out_0_bF$buf1\ d_lut_BUFX2
ABUFX2_insert266 [\internal_register_inst_07.rb_out\_0_] \internal_register_inst_07.rb_out_0_bF$buf2\ d_lut_BUFX2
ABUFX2_insert265 [\internal_register_inst_07.rb_out\_-2_] \internal_register_inst_07.rb_out_0_bF$buf3\ d_lut_BUFX2
ABUFX2_insert264 [\internal_register_inst_07.ra_out\_10_] \internal_register_inst_07.ra_out_10_bF$buf0\ d_lut_BUFX2
ABUFX2_insert263 [\internal_register_inst_07.ra_out\_8_] \internal_register_inst_07.ra_out_10_bF$buf1\ d_lut_BUFX2
ABUFX2_insert262 [\internal_register_inst_07.ra_out\_10_] \internal_register_inst_07.ra_out_10_bF$buf2\ d_lut_BUFX2
ABUFX2_insert261 [\internal_register_inst_07.ra_out\_8_] \internal_register_inst_07.ra_out_10_bF$buf3\ d_lut_BUFX2
ABUFX2_insert260 [\internal_register_inst_07.rb_out\_3_] \internal_register_inst_07.rb_out_3_bF$buf0\ d_lut_BUFX2
ABUFX2_insert259 [\internal_register_inst_07.rb_out\_1_] \internal_register_inst_07.rb_out_3_bF$buf1\ d_lut_BUFX2
ABUFX2_insert258 [\internal_register_inst_07.rb_out\_3_] \internal_register_inst_07.rb_out_3_bF$buf2\ d_lut_BUFX2
ABUFX2_insert257 [\internal_register_inst_07.rb_out\_1_] \internal_register_inst_07.rb_out_3_bF$buf3\ d_lut_BUFX2
ABUFX2_insert256 [_1939_] _1939__bF$buf0 d_lut_BUFX2
ABUFX2_insert255 [_1939_] _1939__bF$buf1 d_lut_BUFX2
ABUFX2_insert254 [_1939_] _1939__bF$buf2 d_lut_BUFX2
ABUFX2_insert253 [_1939_] _1939__bF$buf3 d_lut_BUFX2
ABUFX2_insert252 [_1939_] _1939__bF$buf4 d_lut_BUFX2
ABUFX2_insert251 [\internal_register_inst_07.ra_out\_11_] \internal_register_inst_07.ra_out_13_bF$buf0\ d_lut_BUFX2
ABUFX2_insert250 [\internal_register_inst_07.ra_out\_13_] \internal_register_inst_07.ra_out_13_bF$buf1\ d_lut_BUFX2
ABUFX2_insert249 [\internal_register_inst_07.ra_out\_11_] \internal_register_inst_07.ra_out_13_bF$buf2\ d_lut_BUFX2
ABUFX2_insert248 [\internal_register_inst_07.ra_out\_13_] \internal_register_inst_07.ra_out_13_bF$buf3\ d_lut_BUFX2
ABUFX2_insert247 [\internal_register_inst_07.ra_out\_11_] \internal_register_inst_07.ra_out_13_bF$buf4\ d_lut_BUFX2
ABUFX2_insert246 [\internal_register_inst_07.rb_out\_6_] \internal_register_inst_07.rb_out_6_bF$buf0\ d_lut_BUFX2
ABUFX2_insert245 [\internal_register_inst_07.rb_out\_4_] \internal_register_inst_07.rb_out_6_bF$buf1\ d_lut_BUFX2
ABUFX2_insert244 [\internal_register_inst_07.rb_out\_6_] \internal_register_inst_07.rb_out_6_bF$buf2\ d_lut_BUFX2
ABUFX2_insert243 [\internal_register_inst_07.rb_out\_4_] \internal_register_inst_07.rb_out_6_bF$buf3\ d_lut_BUFX2
ABUFX2_insert242 [_759_] _759__bF$buf0 d_lut_BUFX2
ABUFX2_insert241 [_759_] _759__bF$buf1 d_lut_BUFX2
ABUFX2_insert240 [_759_] _759__bF$buf2 d_lut_BUFX2
ABUFX2_insert239 [_759_] _759__bF$buf3 d_lut_BUFX2
ABUFX2_insert238 [\internal_register_inst_07.rb_out\_7_] \internal_register_inst_07.rb_out_9_bF$buf0\ d_lut_BUFX2
ABUFX2_insert237 [\internal_register_inst_07.rb_out\_9_] \internal_register_inst_07.rb_out_9_bF$buf1\ d_lut_BUFX2
ABUFX2_insert236 [\internal_register_inst_07.rb_out\_7_] \internal_register_inst_07.rb_out_9_bF$buf2\ d_lut_BUFX2
ABUFX2_insert235 [\internal_register_inst_07.rb_out\_9_] \internal_register_inst_07.rb_out_9_bF$buf3\ d_lut_BUFX2
ABUFX2_insert234 [\internal_register_inst_07.rb_out\_7_] \internal_register_inst_07.rb_out_9_bF$buf4\ d_lut_BUFX2
ABUFX2_insert233 [_762_] _762__bF$buf0 d_lut_BUFX2
ABUFX2_insert232 [_762_] _762__bF$buf1 d_lut_BUFX2
ABUFX2_insert231 [_762_] _762__bF$buf2 d_lut_BUFX2
ABUFX2_insert230 [_762_] _762__bF$buf3 d_lut_BUFX2
ABUFX2_insert229 [_762_] _762__bF$buf4 d_lut_BUFX2
ABUFX2_insert228 [_762_] _762__bF$buf5 d_lut_BUFX2
ABUFX2_insert227 [_1469_] _1469__bF$buf0 d_lut_BUFX2
ABUFX2_insert226 [_1469_] _1469__bF$buf1 d_lut_BUFX2
ABUFX2_insert225 [_1469_] _1469__bF$buf2 d_lut_BUFX2
ABUFX2_insert224 [_1469_] _1469__bF$buf3 d_lut_BUFX2
ABUFX2_insert223 [_1625_] _1625__bF$buf0 d_lut_BUFX2
ABUFX2_insert222 [_1625_] _1625__bF$buf1 d_lut_BUFX2
ABUFX2_insert221 [_1625_] _1625__bF$buf2 d_lut_BUFX2
ABUFX2_insert220 [_1625_] _1625__bF$buf3 d_lut_BUFX2
ABUFX2_insert219 [_1625_] _1625__bF$buf4 d_lut_BUFX2
ABUFX2_insert218 [_1625_] _1625__bF$buf5 d_lut_BUFX2
ABUFX2_insert217 [_1625_] _1625__bF$buf6 d_lut_BUFX2
ABUFX2_insert216 [_1625_] _1625__bF$buf7 d_lut_BUFX2
ABUFX2_insert215 [_730_] _730__bF$buf0 d_lut_BUFX2
ABUFX2_insert214 [_730_] _730__bF$buf1 d_lut_BUFX2
ABUFX2_insert213 [_730_] _730__bF$buf2 d_lut_BUFX2
ABUFX2_insert212 [_730_] _730__bF$buf3 d_lut_BUFX2
ABUFX2_insert211 [\instruction_decoder_inst_08.rAadrs\_-2_] \instruction_decoder_inst_08.rAadrs_0_bF$buf0\ d_lut_BUFX2
ABUFX2_insert210 [\instruction_decoder_inst_08.rAadrs\_0_] \instruction_decoder_inst_08.rAadrs_0_bF$buf1\ d_lut_BUFX2
ABUFX2_insert209 [\instruction_decoder_inst_08.rAadrs\_-2_] \instruction_decoder_inst_08.rAadrs_0_bF$buf2\ d_lut_BUFX2
ABUFX2_insert208 [\instruction_decoder_inst_08.rAadrs\_0_] \instruction_decoder_inst_08.rAadrs_0_bF$buf3\ d_lut_BUFX2
ABUFX2_insert207 [\instruction_decoder_inst_08.rAadrs\_-2_] \instruction_decoder_inst_08.rAadrs_0_bF$buf4\ d_lut_BUFX2
ABUFX2_insert206 [\instruction_decoder_inst_08.rAadrs\_0_] \instruction_decoder_inst_08.rAadrs_0_bF$buf5\ d_lut_BUFX2
ABUFX2_insert205 [\instruction_decoder_inst_08.rAadrs\_-2_] \instruction_decoder_inst_08.rAadrs_0_bF$buf6\ d_lut_BUFX2
ABUFX2_insert204 [\instruction_decoder_inst_08.rAadrs\_0_] \instruction_decoder_inst_08.rAadrs_0_bF$buf7\ d_lut_BUFX2
ABUFX2_insert203 [_1311_] _1311__bF$buf0 d_lut_BUFX2
ABUFX2_insert202 [_1311_] _1311__bF$buf1 d_lut_BUFX2
ABUFX2_insert201 [_1311_] _1311__bF$buf2 d_lut_BUFX2
ABUFX2_insert200 [_1311_] _1311__bF$buf3 d_lut_BUFX2
ABUFX2_insert199 [\internal_register_inst_07.rb_out\_9_] \internal_register_inst_07.rb_out_11_bF$buf0\ d_lut_BUFX2
ABUFX2_insert198 [\internal_register_inst_07.rb_out\_11_] \internal_register_inst_07.rb_out_11_bF$buf1\ d_lut_BUFX2
ABUFX2_insert197 [\internal_register_inst_07.rb_out\_9_] \internal_register_inst_07.rb_out_11_bF$buf2\ d_lut_BUFX2
ABUFX2_insert196 [\internal_register_inst_07.rb_out\_11_] \internal_register_inst_07.rb_out_11_bF$buf3\ d_lut_BUFX2
ABUFX2_insert195 [\internal_register_inst_07.rb_out\_9_] \internal_register_inst_07.rb_out_11_bF$buf4\ d_lut_BUFX2
ABUFX2_insert194 [\address_mux_inst_05.adrs_ctrl\] \address_mux_inst_05.adrs_ctrl_bF$buf0\ d_lut_BUFX2
ABUFX2_insert193 [\address_mux_inst_05.adrs_ctrl\] \address_mux_inst_05.adrs_ctrl_bF$buf1\ d_lut_BUFX2
ABUFX2_insert192 [\address_mux_inst_05.adrs_ctrl\] \address_mux_inst_05.adrs_ctrl_bF$buf2\ d_lut_BUFX2
ABUFX2_insert191 [\address_mux_inst_05.adrs_ctrl\] \address_mux_inst_05.adrs_ctrl_bF$buf3\ d_lut_BUFX2
ABUFX2_insert190 [\address_mux_inst_05.adrs_ctrl\] \address_mux_inst_05.adrs_ctrl_bF$buf4\ d_lut_BUFX2
ABUFX2_insert189 [\internal_register_inst_07.rb_out\_12_] \internal_register_inst_07.rb_out_14_bF$buf0\ d_lut_BUFX2
ABUFX2_insert188 [\internal_register_inst_07.rb_out\_14_] \internal_register_inst_07.rb_out_14_bF$buf1\ d_lut_BUFX2
ABUFX2_insert187 [\internal_register_inst_07.rb_out\_12_] \internal_register_inst_07.rb_out_14_bF$buf2\ d_lut_BUFX2
ABUFX2_insert186 [\internal_register_inst_07.rb_out\_14_] \internal_register_inst_07.rb_out_14_bF$buf3\ d_lut_BUFX2
ABUFX2_insert185 [\internal_register_inst_07.ra_out\_0_] \internal_register_inst_07.ra_out_2_bF$buf0\ d_lut_BUFX2
ABUFX2_insert184 [\internal_register_inst_07.ra_out\_2_] \internal_register_inst_07.ra_out_2_bF$buf1\ d_lut_BUFX2
ABUFX2_insert183 [\internal_register_inst_07.ra_out\_0_] \internal_register_inst_07.ra_out_2_bF$buf2\ d_lut_BUFX2
ABUFX2_insert182 [\internal_register_inst_07.ra_out\_2_] \internal_register_inst_07.ra_out_2_bF$buf3\ d_lut_BUFX2
ABUFX2_insert181 [\internal_register_inst_07.ra_out\_3_] \internal_register_inst_07.ra_out_5_bF$buf0\ d_lut_BUFX2
ABUFX2_insert180 [\internal_register_inst_07.ra_out\_5_] \internal_register_inst_07.ra_out_5_bF$buf1\ d_lut_BUFX2
ABUFX2_insert179 [\internal_register_inst_07.ra_out\_3_] \internal_register_inst_07.ra_out_5_bF$buf2\ d_lut_BUFX2
ABUFX2_insert178 [\internal_register_inst_07.ra_out\_5_] \internal_register_inst_07.ra_out_5_bF$buf3\ d_lut_BUFX2
ABUFX2_insert177 [\internal_register_inst_07.ra_out\_3_] \internal_register_inst_07.ra_out_5_bF$buf4\ d_lut_BUFX2
ABUFX2_insert176 [\control_unit_ints_09.flag\] \control_unit_ints_09.flag_bF$buf0\ d_lut_BUFX2
ABUFX2_insert175 [\control_unit_ints_09.flag\] \control_unit_ints_09.flag_bF$buf1\ d_lut_BUFX2
ABUFX2_insert174 [\control_unit_ints_09.flag\] \control_unit_ints_09.flag_bF$buf2\ d_lut_BUFX2
ABUFX2_insert173 [\control_unit_ints_09.flag\] \control_unit_ints_09.flag_bF$buf3\ d_lut_BUFX2
ABUFX2_insert172 [\control_unit_ints_09.flag\] \control_unit_ints_09.flag_bF$buf4\ d_lut_BUFX2
ABUFX2_insert171 [\control_unit_ints_09.flag\] \control_unit_ints_09.flag_bF$buf5\ d_lut_BUFX2
ABUFX2_insert170 [\control_unit_ints_09.flag\] \control_unit_ints_09.flag_bF$buf6\ d_lut_BUFX2
ABUFX2_insert169 [\internal_register_inst_07.ra_out\_6_] \internal_register_inst_07.ra_out_8_bF$buf0\ d_lut_BUFX2
ABUFX2_insert168 [\internal_register_inst_07.ra_out\_8_] \internal_register_inst_07.ra_out_8_bF$buf1\ d_lut_BUFX2
ABUFX2_insert167 [\internal_register_inst_07.ra_out\_6_] \internal_register_inst_07.ra_out_8_bF$buf2\ d_lut_BUFX2
ABUFX2_insert166 [\internal_register_inst_07.ra_out\_8_] \internal_register_inst_07.ra_out_8_bF$buf3\ d_lut_BUFX2
ABUFX2_insert165 [\internal_register_inst_07.rb_out\_-1_] \internal_register_inst_07.rb_out_1_bF$buf0\ d_lut_BUFX2
ABUFX2_insert164 [\internal_register_inst_07.rb_out\_1_] \internal_register_inst_07.rb_out_1_bF$buf1\ d_lut_BUFX2
ABUFX2_insert163 [\internal_register_inst_07.rb_out\_-1_] \internal_register_inst_07.rb_out_1_bF$buf2\ d_lut_BUFX2
ABUFX2_insert162 [\internal_register_inst_07.rb_out\_1_] \internal_register_inst_07.rb_out_1_bF$buf3\ d_lut_BUFX2
ABUFX2_insert161 [\internal_register_inst_07.ra_out\_9_] \internal_register_inst_07.ra_out_11_bF$buf0\ d_lut_BUFX2
ABUFX2_insert160 [\internal_register_inst_07.ra_out\_11_] \internal_register_inst_07.ra_out_11_bF$buf1\ d_lut_BUFX2
ABUFX2_insert159 [\internal_register_inst_07.ra_out\_9_] \internal_register_inst_07.ra_out_11_bF$buf2\ d_lut_BUFX2
ABUFX2_insert158 [\internal_register_inst_07.ra_out\_11_] \internal_register_inst_07.ra_out_11_bF$buf3\ d_lut_BUFX2
ABUFX2_insert157 [\internal_register_inst_07.rb_out\_2_] \internal_register_inst_07.rb_out_4_bF$buf0\ d_lut_BUFX2
ABUFX2_insert156 [\internal_register_inst_07.rb_out\_4_] \internal_register_inst_07.rb_out_4_bF$buf1\ d_lut_BUFX2
ABUFX2_insert155 [\internal_register_inst_07.rb_out\_2_] \internal_register_inst_07.rb_out_4_bF$buf2\ d_lut_BUFX2
ABUFX2_insert154 [\internal_register_inst_07.rb_out\_4_] \internal_register_inst_07.rb_out_4_bF$buf3\ d_lut_BUFX2
ABUFX2_insert153 [_1596_] _1596__bF$buf0 d_lut_BUFX2
ABUFX2_insert152 [_1596_] _1596__bF$buf1 d_lut_BUFX2
ABUFX2_insert151 [_1596_] _1596__bF$buf2 d_lut_BUFX2
ABUFX2_insert150 [_1596_] _1596__bF$buf3 d_lut_BUFX2
ABUFX2_insert149 [_1596_] _1596__bF$buf4 d_lut_BUFX2
ABUFX2_insert148 [\internal_register_inst_07.ra_out\_12_] \internal_register_inst_07.ra_out_14_bF$buf0\ d_lut_BUFX2
ABUFX2_insert147 [\internal_register_inst_07.ra_out\_14_] \internal_register_inst_07.ra_out_14_bF$buf1\ d_lut_BUFX2
ABUFX2_insert146 [\internal_register_inst_07.ra_out\_12_] \internal_register_inst_07.ra_out_14_bF$buf2\ d_lut_BUFX2
ABUFX2_insert145 [\internal_register_inst_07.ra_out\_14_] \internal_register_inst_07.ra_out_14_bF$buf3\ d_lut_BUFX2
ABUFX2_insert144 [_1561_] _1561__bF$buf0 d_lut_BUFX2
ABUFX2_insert143 [_1561_] _1561__bF$buf1 d_lut_BUFX2
ABUFX2_insert142 [_1561_] _1561__bF$buf2 d_lut_BUFX2
ABUFX2_insert141 [_1561_] _1561__bF$buf3 d_lut_BUFX2
ABUFX2_insert140 [_1561_] _1561__bF$buf4 d_lut_BUFX2
ABUFX2_insert139 [\internal_register_inst_07.rb_out\_5_] \internal_register_inst_07.rb_out_7_bF$buf0\ d_lut_BUFX2
ABUFX2_insert138 [\internal_register_inst_07.rb_out\_7_] \internal_register_inst_07.rb_out_7_bF$buf1\ d_lut_BUFX2
ABUFX2_insert137 [\internal_register_inst_07.rb_out\_5_] \internal_register_inst_07.rb_out_7_bF$buf2\ d_lut_BUFX2
ABUFX2_insert136 [\internal_register_inst_07.rb_out\_7_] \internal_register_inst_07.rb_out_7_bF$buf3\ d_lut_BUFX2
ABUFX2_insert135 [_1526_] _1526__bF$buf0 d_lut_BUFX2
ABUFX2_insert134 [_1526_] _1526__bF$buf1 d_lut_BUFX2
ABUFX2_insert133 [_1526_] _1526__bF$buf2 d_lut_BUFX2
ABUFX2_insert132 [_1526_] _1526__bF$buf3 d_lut_BUFX2
ABUFX2_insert131 [_1526_] _1526__bF$buf4 d_lut_BUFX2
ABUFX2_insert130 [\control_unit_ints_09.inst_wr\] \control_unit_ints_09.inst_wr_bF$buf0\ d_lut_BUFX2
ABUFX2_insert129 [\control_unit_ints_09.inst_wr\] \control_unit_ints_09.inst_wr_bF$buf1\ d_lut_BUFX2
ABUFX2_insert128 [\control_unit_ints_09.inst_wr\] \control_unit_ints_09.inst_wr_bF$buf2\ d_lut_BUFX2
ABUFX2_insert127 [\control_unit_ints_09.inst_wr\] \control_unit_ints_09.inst_wr_bF$buf3\ d_lut_BUFX2
ABUFX2_insert126 [\control_unit_ints_09.imm_en\] \control_unit_ints_09.imm_en_bF$buf0\ d_lut_BUFX2
ABUFX2_insert125 [\control_unit_ints_09.imm_en\] \control_unit_ints_09.imm_en_bF$buf1\ d_lut_BUFX2
ABUFX2_insert124 [\control_unit_ints_09.imm_en\] \control_unit_ints_09.imm_en_bF$buf2\ d_lut_BUFX2
ABUFX2_insert123 [\control_unit_ints_09.imm_en\] \control_unit_ints_09.imm_en_bF$buf3\ d_lut_BUFX2
ABUFX2_insert122 [\instruction_decoder_inst_08.rAadrs\_-1_] \instruction_decoder_inst_08.rAadrs_1_bF$buf0\ d_lut_BUFX2
ABUFX2_insert121 [\instruction_decoder_inst_08.rAadrs\_1_] \instruction_decoder_inst_08.rAadrs_1_bF$buf1\ d_lut_BUFX2
ABUFX2_insert120 [\instruction_decoder_inst_08.rAadrs\_-1_] \instruction_decoder_inst_08.rAadrs_1_bF$buf2\ d_lut_BUFX2
ABUFX2_insert119 [\instruction_decoder_inst_08.rAadrs\_1_] \instruction_decoder_inst_08.rAadrs_1_bF$buf3\ d_lut_BUFX2
ABUFX2_insert118 [\instruction_decoder_inst_08.rAadrs\_-1_] \instruction_decoder_inst_08.rAadrs_1_bF$buf4\ d_lut_BUFX2
ABUFX2_insert117 [\instruction_decoder_inst_08.rAadrs\_1_] \instruction_decoder_inst_08.rAadrs_1_bF$buf5\ d_lut_BUFX2
ABUFX2_insert116 [\instruction_decoder_inst_08.rAadrs\_-1_] \instruction_decoder_inst_08.rAadrs_1_bF$buf6\ d_lut_BUFX2
ABUFX2_insert115 [\instruction_decoder_inst_08.rAadrs\_1_] \instruction_decoder_inst_08.rAadrs_1_bF$buf7\ d_lut_BUFX2
ABUFX2_insert114 [_1312_] _1312__bF$buf0 d_lut_BUFX2
ABUFX2_insert113 [_1312_] _1312__bF$buf1 d_lut_BUFX2
ABUFX2_insert112 [_1312_] _1312__bF$buf2 d_lut_BUFX2
ABUFX2_insert111 [_1312_] _1312__bF$buf3 d_lut_BUFX2
ABUFX2_insert110 [_740_] _740__bF$buf0 d_lut_BUFX2
ABUFX2_insert109 [_740_] _740__bF$buf1 d_lut_BUFX2
ABUFX2_insert108 [_740_] _740__bF$buf2 d_lut_BUFX2
ABUFX2_insert107 [_740_] _740__bF$buf3 d_lut_BUFX2
ABUFX2_insert106 [\internal_register_inst_07.rb_out\_10_] \internal_register_inst_07.rb_out_12_bF$buf0\ d_lut_BUFX2
ABUFX2_insert105 [\internal_register_inst_07.rb_out\_12_] \internal_register_inst_07.rb_out_12_bF$buf1\ d_lut_BUFX2
ABUFX2_insert104 [\internal_register_inst_07.rb_out\_10_] \internal_register_inst_07.rb_out_12_bF$buf2\ d_lut_BUFX2
ABUFX2_insert103 [\internal_register_inst_07.rb_out\_12_] \internal_register_inst_07.rb_out_12_bF$buf3\ d_lut_BUFX2
ABUFX2_insert102 [_1579_] _1579__bF$buf0 d_lut_BUFX2
ABUFX2_insert101 [_1579_] _1579__bF$buf1 d_lut_BUFX2
ABUFX2_insert100 [_1579_] _1579__bF$buf2 d_lut_BUFX2
ABUFX2_insert99 [_1579_] _1579__bF$buf3 d_lut_BUFX2
ABUFX2_insert98 [_1579_] _1579__bF$buf4 d_lut_BUFX2
ABUFX2_insert97 [\internal_register_inst_07.ra_out\_-2_] \internal_register_inst_07.ra_out_0_bF$buf0\ d_lut_BUFX2
ABUFX2_insert96 [\internal_register_inst_07.ra_out\_0_] \internal_register_inst_07.ra_out_0_bF$buf1\ d_lut_BUFX2
ABUFX2_insert95 [\internal_register_inst_07.ra_out\_-2_] \internal_register_inst_07.ra_out_0_bF$buf2\ d_lut_BUFX2
ABUFX2_insert94 [\internal_register_inst_07.ra_out\_0_] \internal_register_inst_07.ra_out_0_bF$buf3\ d_lut_BUFX2
ABUFX2_insert93 [_1544_] _1544__bF$buf0 d_lut_BUFX2
ABUFX2_insert92 [_1544_] _1544__bF$buf1 d_lut_BUFX2
ABUFX2_insert91 [_1544_] _1544__bF$buf2 d_lut_BUFX2
ABUFX2_insert90 [_1544_] _1544__bF$buf3 d_lut_BUFX2
ABUFX2_insert89 [_1544_] _1544__bF$buf4 d_lut_BUFX2
ABUFX2_insert88 [\internal_register_inst_07.rb_out\_13_] \internal_register_inst_07.rb_out_15_bF$buf0\ d_lut_BUFX2
ABUFX2_insert87 [\internal_register_inst_07.rb_out\_15_] \internal_register_inst_07.rb_out_15_bF$buf1\ d_lut_BUFX2
ABUFX2_insert86 [\internal_register_inst_07.rb_out\_13_] \internal_register_inst_07.rb_out_15_bF$buf2\ d_lut_BUFX2
ABUFX2_insert85 [\internal_register_inst_07.rb_out\_15_] \internal_register_inst_07.rb_out_15_bF$buf3\ d_lut_BUFX2
ABUFX2_insert84 [\internal_register_inst_07.ra_out\_1_] \internal_register_inst_07.ra_out_3_bF$buf0\ d_lut_BUFX2
ABUFX2_insert83 [\internal_register_inst_07.ra_out\_3_] \internal_register_inst_07.ra_out_3_bF$buf1\ d_lut_BUFX2
ABUFX2_insert82 [\internal_register_inst_07.ra_out\_1_] \internal_register_inst_07.ra_out_3_bF$buf2\ d_lut_BUFX2
ABUFX2_insert81 [\internal_register_inst_07.ra_out\_3_] \internal_register_inst_07.ra_out_3_bF$buf3\ d_lut_BUFX2
ABUFX2_insert80 [\internal_register_inst_07.ra_out\_1_] \internal_register_inst_07.ra_out_3_bF$buf4\ d_lut_BUFX2
ABUFX2_insert79 [\instruction_decoder_inst_08.rBadrs\_0_] \instruction_decoder_inst_08.rBadrs_0_bF$buf0\ d_lut_BUFX2
ABUFX2_insert78 [\instruction_decoder_inst_08.rBadrs\_-2_] \instruction_decoder_inst_08.rBadrs_0_bF$buf1\ d_lut_BUFX2
ABUFX2_insert77 [\instruction_decoder_inst_08.rBadrs\_0_] \instruction_decoder_inst_08.rBadrs_0_bF$buf2\ d_lut_BUFX2
ABUFX2_insert76 [\instruction_decoder_inst_08.rBadrs\_-2_] \instruction_decoder_inst_08.rBadrs_0_bF$buf3\ d_lut_BUFX2
ABUFX2_insert75 [\instruction_decoder_inst_08.rBadrs\_0_] \instruction_decoder_inst_08.rBadrs_0_bF$buf4\ d_lut_BUFX2
ABUFX2_insert74 [\instruction_decoder_inst_08.rBadrs\_-2_] \instruction_decoder_inst_08.rBadrs_0_bF$buf5\ d_lut_BUFX2
ABUFX2_insert73 [\instruction_decoder_inst_08.rBadrs\_0_] \instruction_decoder_inst_08.rBadrs_0_bF$buf6\ d_lut_BUFX2
ABUFX2_insert72 [\instruction_decoder_inst_08.rBadrs\_-2_] \instruction_decoder_inst_08.rBadrs_0_bF$buf7\ d_lut_BUFX2
ABUFX2_insert71 [\internal_register_inst_07.ra_out\_6_] \internal_register_inst_07.ra_out_6_bF$buf0\ d_lut_BUFX2
ABUFX2_insert70 [\internal_register_inst_07.ra_out\_4_] \internal_register_inst_07.ra_out_6_bF$buf1\ d_lut_BUFX2
ABUFX2_insert69 [\internal_register_inst_07.ra_out\_6_] \internal_register_inst_07.ra_out_6_bF$buf2\ d_lut_BUFX2
ABUFX2_insert68 [\internal_register_inst_07.ra_out\_4_] \internal_register_inst_07.ra_out_6_bF$buf3\ d_lut_BUFX2
ABUFX2_insert67 [\internal_register_inst_07.ra_out\_6_] \internal_register_inst_07.ra_out_6_bF$buf4\ d_lut_BUFX2
ABUFX2_insert66 [_1779_] _1779__bF$buf0 d_lut_BUFX2
ABUFX2_insert65 [_1779_] _1779__bF$buf1 d_lut_BUFX2
ABUFX2_insert64 [_1779_] _1779__bF$buf2 d_lut_BUFX2
ABUFX2_insert63 [_1779_] _1779__bF$buf3 d_lut_BUFX2
ABUFX2_insert62 [_1779_] _1779__bF$buf4 d_lut_BUFX2
ABUFX2_insert61 [\internal_register_inst_07.ra_out\_7_] \internal_register_inst_07.ra_out_9_bF$buf0\ d_lut_BUFX2
ABUFX2_insert60 [\internal_register_inst_07.ra_out\_9_] \internal_register_inst_07.ra_out_9_bF$buf1\ d_lut_BUFX2
ABUFX2_insert59 [\internal_register_inst_07.ra_out\_7_] \internal_register_inst_07.ra_out_9_bF$buf2\ d_lut_BUFX2
ABUFX2_insert58 [\internal_register_inst_07.ra_out\_9_] \internal_register_inst_07.ra_out_9_bF$buf3\ d_lut_BUFX2
ABUFX2_insert57 [\internal_register_inst_07.ra_out\_7_] \internal_register_inst_07.ra_out_9_bF$buf4\ d_lut_BUFX2
ABUFX2_insert56 [\internal_register_inst_07.rb_out\_2_] \internal_register_inst_07.rb_out_2_bF$buf0\ d_lut_BUFX2
ABUFX2_insert55 [\internal_register_inst_07.rb_out\_0_] \internal_register_inst_07.rb_out_2_bF$buf1\ d_lut_BUFX2
ABUFX2_insert54 [\internal_register_inst_07.rb_out\_2_] \internal_register_inst_07.rb_out_2_bF$buf2\ d_lut_BUFX2
ABUFX2_insert53 [\internal_register_inst_07.rb_out\_0_] \internal_register_inst_07.rb_out_2_bF$buf3\ d_lut_BUFX2
ABUFX2_insert52 [_755_] _755__bF$buf0 d_lut_BUFX2
ABUFX2_insert51 [_755_] _755__bF$buf1 d_lut_BUFX2
ABUFX2_insert50 [_755_] _755__bF$buf2 d_lut_BUFX2
ABUFX2_insert49 [_755_] _755__bF$buf3 d_lut_BUFX2
ABUFX2_insert48 [_1615_] _1615__bF$buf0 d_lut_BUFX2
ABUFX2_insert47 [_1615_] _1615__bF$buf1 d_lut_BUFX2
ABUFX2_insert46 [_1615_] _1615__bF$buf2 d_lut_BUFX2
ABUFX2_insert45 [_1615_] _1615__bF$buf3 d_lut_BUFX2
ABUFX2_insert44 [_1615_] _1615__bF$buf4 d_lut_BUFX2
ABUFX2_insert43 [\internal_register_inst_07.ra_out\_10_] \internal_register_inst_07.ra_out_12_bF$buf0\ d_lut_BUFX2
ABUFX2_insert42 [\internal_register_inst_07.ra_out\_12_] \internal_register_inst_07.ra_out_12_bF$buf1\ d_lut_BUFX2
ABUFX2_insert41 [\internal_register_inst_07.ra_out\_10_] \internal_register_inst_07.ra_out_12_bF$buf2\ d_lut_BUFX2
ABUFX2_insert40 [\internal_register_inst_07.ra_out\_12_] \internal_register_inst_07.ra_out_12_bF$buf3\ d_lut_BUFX2
ABUFX2_insert39 [\internal_register_inst_07.rb_out\_3_] \internal_register_inst_07.rb_out_5_bF$buf0\ d_lut_BUFX2
ABUFX2_insert38 [\internal_register_inst_07.rb_out\_5_] \internal_register_inst_07.rb_out_5_bF$buf1\ d_lut_BUFX2
ABUFX2_insert37 [\internal_register_inst_07.rb_out\_3_] \internal_register_inst_07.rb_out_5_bF$buf2\ d_lut_BUFX2
ABUFX2_insert36 [\internal_register_inst_07.rb_out\_5_] \internal_register_inst_07.rb_out_5_bF$buf3\ d_lut_BUFX2
ABUFX2_insert35 [\internal_register_inst_07.rb_out\_3_] \internal_register_inst_07.rb_out_5_bF$buf4\ d_lut_BUFX2
ABUFX2_insert34 [\internal_register_inst_07.ra_out\_15_] \internal_register_inst_07.ra_out_15_bF$buf0\ d_lut_BUFX2
ABUFX2_insert33 [\internal_register_inst_07.ra_out\_13_] \internal_register_inst_07.ra_out_15_bF$buf1\ d_lut_BUFX2
ABUFX2_insert32 [\internal_register_inst_07.ra_out\_15_] \internal_register_inst_07.ra_out_15_bF$buf2\ d_lut_BUFX2
ABUFX2_insert31 [\internal_register_inst_07.ra_out\_13_] \internal_register_inst_07.ra_out_15_bF$buf3\ d_lut_BUFX2
ABUFX2_insert30 [\internal_register_inst_07.rb_out\_8_] \internal_register_inst_07.rb_out_8_bF$buf0\ d_lut_BUFX2
ABUFX2_insert29 [\internal_register_inst_07.rb_out\_6_] \internal_register_inst_07.rb_out_8_bF$buf1\ d_lut_BUFX2
ABUFX2_insert28 [\internal_register_inst_07.rb_out\_8_] \internal_register_inst_07.rb_out_8_bF$buf2\ d_lut_BUFX2
ABUFX2_insert27 [\internal_register_inst_07.rb_out\_6_] \internal_register_inst_07.rb_out_8_bF$buf3\ d_lut_BUFX2
ABUFX2_insert26 [_1471_] _1471__bF$buf0 d_lut_BUFX2
ABUFX2_insert25 [_1471_] _1471__bF$buf1 d_lut_BUFX2
ABUFX2_insert24 [_1471_] _1471__bF$buf2 d_lut_BUFX2
ABUFX2_insert23 [_1471_] _1471__bF$buf3 d_lut_BUFX2
ABUFX2_insert22 [_1471_] _1471__bF$buf4 d_lut_BUFX2
ACLKBUF1_insert21 [clock] clock_bF$buf0 d_lut_CLKBUF1
ACLKBUF1_insert20 [clock] clock_bF$buf1 d_lut_CLKBUF1
ACLKBUF1_insert19 [clock] clock_bF$buf2 d_lut_CLKBUF1
ACLKBUF1_insert18 [clock] clock_bF$buf3 d_lut_CLKBUF1
ACLKBUF1_insert17 [clock] clock_bF$buf4 d_lut_CLKBUF1
ACLKBUF1_insert16 [clock] clock_bF$buf5 d_lut_CLKBUF1
ACLKBUF1_insert15 [clock] clock_bF$buf6 d_lut_CLKBUF1
ACLKBUF1_insert14 [clock] clock_bF$buf7 d_lut_CLKBUF1
ACLKBUF1_insert13 [clock] clock_bF$buf8 d_lut_CLKBUF1
ACLKBUF1_insert12 [clock] clock_bF$buf9 d_lut_CLKBUF1
ACLKBUF1_insert11 [clock] clock_bF$buf10 d_lut_CLKBUF1
ACLKBUF1_insert10 [clock] clock_bF$buf11 d_lut_CLKBUF1
ACLKBUF1_insert9 [clock] clock_bF$buf12 d_lut_CLKBUF1
ACLKBUF1_insert8 [clock] clock_bF$buf13 d_lut_CLKBUF1
ABUFX2_insert7 [\internal_register_inst_07.rb_out\_8_] \internal_register_inst_07.rb_out_10_bF$buf0\ d_lut_BUFX2
ABUFX2_insert6 [\internal_register_inst_07.rb_out\_10_] \internal_register_inst_07.rb_out_10_bF$buf1\ d_lut_BUFX2
ABUFX2_insert5 [\internal_register_inst_07.rb_out\_8_] \internal_register_inst_07.rb_out_10_bF$buf2\ d_lut_BUFX2
ABUFX2_insert4 [\internal_register_inst_07.rb_out\_10_] \internal_register_inst_07.rb_out_10_bF$buf3\ d_lut_BUFX2
ABUFX2_insert3 [\internal_register_inst_07.rb_out\_11_] \internal_register_inst_07.rb_out_13_bF$buf0\ d_lut_BUFX2
ABUFX2_insert2 [\internal_register_inst_07.rb_out\_13_] \internal_register_inst_07.rb_out_13_bF$buf1\ d_lut_BUFX2
ABUFX2_insert1 [\internal_register_inst_07.rb_out\_11_] \internal_register_inst_07.rb_out_13_bF$buf2\ d_lut_BUFX2
ABUFX2_insert0 [\internal_register_inst_07.rb_out\_13_] \internal_register_inst_07.rb_out_13_bF$buf3\ d_lut_BUFX2
A_2082_ [_0__-2_] adrs_bus_-2_ d_lut_BUFX2
A_2083_ [_0__1_] adrs_bus_1_ d_lut_BUFX2
A_2084_ [_0__8_] adrs_bus_8_ d_lut_BUFX2
A_2085_ [_0__11_] adrs_bus_11_ d_lut_BUFX2
A_2086_ [_0__10_] adrs_bus_10_ d_lut_BUFX2
A_2087_ [_0__13_] adrs_bus_13_ d_lut_BUFX2
A_2088_ [_0__12_] adrs_bus_12_ d_lut_BUFX2
A_2089_ [_0__15_] adrs_bus_15_ d_lut_BUFX2
A_2090_ [_0__0_] adrs_bus_0_ d_lut_BUFX2
A_2091_ [_0__3_] adrs_bus_3_ d_lut_BUFX2
A_2092_ [_0__2_] adrs_bus_2_ d_lut_BUFX2
A_2093_ [_0__5_] adrs_bus_5_ d_lut_BUFX2
A_2094_ [_0__4_] adrs_bus_4_ d_lut_BUFX2
A_2095_ [_0__7_] adrs_bus_7_ d_lut_BUFX2
A_2096_ [_0__6_] adrs_bus_6_ d_lut_BUFX2
A_2097_ [_0__9_] adrs_bus_9_ d_lut_BUFX2
A_2098_ [\internal_register_inst_07.rb_out_0_bF$buf3\] data_out_-2_ d_lut_BUFX2
A_2099_ [\internal_register_inst_07.rb_out_1_bF$buf3\] data_out_1_ d_lut_BUFX2
A_2100_ [\internal_register_inst_07.rb_out_10_bF$buf3\] data_out_8_ d_lut_BUFX2
A_2101_ [\internal_register_inst_07.rb_out_11_bF$buf4\] data_out_11_ d_lut_BUFX2
A_2102_ [\internal_register_inst_07.rb_out_12_bF$buf3\] data_out_10_ d_lut_BUFX2
A_2103_ [\internal_register_inst_07.rb_out_13_bF$buf3\] data_out_13_ d_lut_BUFX2
A_2104_ [\internal_register_inst_07.rb_out_14_bF$buf3\] data_out_12_ d_lut_BUFX2
A_2105_ [\internal_register_inst_07.rb_out_15_bF$buf3\] data_out_15_ d_lut_BUFX2
A_2106_ [\internal_register_inst_07.rb_out_2_bF$buf3\] data_out_0_ d_lut_BUFX2
A_2107_ [\internal_register_inst_07.rb_out_3_bF$buf3\] data_out_3_ d_lut_BUFX2