*SPEF "IEEE 1481.1999"
*DESIGN "control_unit"
*DATE "18:46:36 Sunday July 12, 2020"
*VENDOR "unknown"
*PROGRAM "qrouter"
*VERSION "unknown"
*DESIGN_FLOW "qflow"
*DIVIDER /
*DELIMITER :
*BUS_DELIMITER <>
*T_UNIT 1 PS
*C_UNIT 1 FF
*R_UNIT 1 OHM
*L_UNIT 1 HENRY

*NAME_MAP
*1 clock
*2 _69_
*3 _65_
*4 _67_
*5 _68_
*6 _66_
*7 cState[2]
*8 _67_
*9 _48_
*10 _37_
*11 _46_
*12 _50_
*13 _22_
*14 _68_
*15 _29_
*16 _58_
*17 _28_
*18 cState[0]
*19 _65_
*20 _30_
*21 _28_
*22 _48_
*23 reset
*24 _31_
*25 _48_
*26 _54_
*27 _0_
*28 _31_
*29 _32_
*30 _53_
*31 _65_
*32 opcode[2]
*33 _43_
*34 _33_
*35 _45_
*36 _6_
*37 _33_
*38 _40_
*39 _46_
*40 _36_
*41 opcode[0]
*42 _44_
*43 _39_
*44 _34_
*45 opcode[1]
*46 _38_
*47 _35_
*48 _44_
*49 _5_
*50 _29_
*51 _32_
*52 _30_
*53 opcode[3]
*54 _42_
*55 _33_
*56 _8_
*57 _35_
*58 _46_
*59 _36_
*60 _11_
*61 _39_
*62 _45_
*63 _40_
*64 cState[1]
*65 _66_
*66 _51_
*67 _41_
*68 _16_
*69 _45_
*70 _47_
*71 _52_
*72 _20_
*73 _51_
*74 _53_
*75 _52_
*76 _21_
*77 _69_
*78 _56_
*79 _54_
*80 _25_[0]
*81 _28_
*82 _61_
*83 _25_[1]
*84 _30_
*85 _62_
*86 _1_
*87 _32_
*88 _69_
*89 _7_
*90 _34_
*91 _35_
*92 _9_
*93 _36_
*94 _37_
*95 _24_
*96 _37_
*97 _60_
*98 _10_
*99 _38_
*100 _39_
*101 _12_
*102 _40_
*103 _41_
*104 _23_
*105 _41_
*106 _59_
*107 _13_
*108 _42_
*109 _43_
*110 _14_
*111 _43_
*112 _45_
*113 _15_
*114 _44_
*115 _45_
*116 _17_
*117 _46_
*118 _47_
*119 _26_
*120 _47_
*121 _63_
*122 _18_
*123 _48_
*124 _49_
*125 _2_
*126 _49_
*127 _68_
*128 _19_
*129 _50_
*130 _52_
*131 _27_
*132 _52_
*133 _64_
*134 _3_
*135 _53_
*136 _67_
*137 _4_
*138 _54_
*139 _66_
*140 adrs_ctrl
*141 _55_
*142 decoder_en
*143 _56_
*144 imm_en
*145 _57_
*146 inst_wr
*147 _58_
*148 mem_rd
*149 _59_
*150 mem_wr
*151 _60_
*152 pc_op[0]
*153 _61_
*154 pc_op[1]
*155 _62_
*156 rD_wr
*157 _63_
*158 reg_en
*159 _64_

*PORTS
*1 I
*23 I
*32 I
*41 I
*45 I
*53 I
*140 O
*142 O
*144 O
*146 O
*148 O
*150 O
*152 O
*154 O
*156 O
*158 O

*D_NET *1 0.001236
*CONN
*P *1 O
*I *2:CLK I *L 0
*I *3:CLK I *L 0
*I *4:CLK I *L 0
*I *5:CLK I *L 0
*I *6:CLK I *L 0
*CAP
1 1_1 6.048e-05
2 1_2 0.00022368
3 1_3 0.0002856
4 1_4 0.0001644
5 1_5 2.04e-05
6 1_6 0.0001428
7 1_7 0.00033864
8 1_8 0
*RES
1 *1 1_1 1.68
2 1_1 1_2 3.54667
3 1_2 1_3 3.26667
4 1_3 *2:CLK 0
5 1_2 1_4 1.16667
6 1_4 *3:CLK 0
7 1_4 1_5 0.233333
8 1_5 1_6 1.63333
9 1_6 *4:CLK 0
10 1_5 1_7 3.87333
11 1_7 *5:CLK 0
12 1_1 1_8 0
13 1_8 *6:CLK 0
*END
*D_NET *7 0.00046848
*CONN
*I *8:Q O *D _67
*I *9:B I *L 0
*I *10:B I *L 0
*I *11:C I *L 0
*I *12:A I *L 0
*CAP
1 7_1 0.00017544
2 7_2 0
3 7_3 3.36e-05
4 7_4 8.4e-06
5 7_5 1.344e-05
6 7_6 7.44e-05
7 7_7 0.0001632
*RES
1 *8:Q 7_1 2.00667
2 7_1 7_2 0
3 7_2 *9:B 0
4 7_2 7_3 0.933333
5 7_3 7_4 0.233333
6 7_4 *10:B 0
7 7_3 7_5 0.373333
8 7_5 7_6 1.4
9 7_6 *11:C 0
10 7_5 7_7 1.86667
11 7_7 *12:A 0
*END
*D_NET *13 0.00045744
*CONN
*I *14:Q O *D _68
*I *15:A I *L 0
*I *16:A I *L 0
*I *17:A I *L 0
*CAP
1 13_1 7.344e-05
2 13_2 0
3 13_3 0.0001008
4 13_4 0.0001188
5 13_5 0.0001644
*RES
1 *14:Q 13_1 0.84
2 13_1 13_2 0
3 13_2 *15:A 0
4 13_2 13_3 2.8
5 13_3 13_4 1.07333
6 13_4 *16:A 0
7 13_3 13_5 1.16667
8 13_5 *17:A 0
*END
*D_NET *18 0.00047448
*CONN
*I *19:Q O *D _65
*I *20:A I *L 0
*I *21:B I *L 0
*I *22:A I *L 0
*CAP
1 18_1 3.36e-05
2 18_2 0.00024408
3 18_3 0
4 18_4 7.44e-05
5 18_5 0.0001224
*RES
1 *19:Q 18_1 0.933333
2 18_1 18_2 3.78
3 18_2 18_3 0
4 18_3 *20:A 0
5 18_3 18_4 1.4
6 18_4 *21:B 0
7 18_1 18_5 1.4
8 18_5 *22:A 0
*END
*D_NET *23 0.0003456
*CONN
*P *23 O
*I *24:A I *L 0
*I *25:C I *L 0
*I *26:A I *L 0
*CAP
1 23_1 2.688e-05
2 23_2 8.064e-05
3 23_3 4.92e-05
4 23_4 0.00018888
5 23_5 0
*RES
1 *23 23_1 0.746667
2 23_1 23_2 2.24
3 23_2 23_3 0.7
4 23_3 *24:A 0
5 23_2 23_4 4.24667
6 23_4 *25:C 0
7 23_1 23_5 0
8 23_5 *26:A 0
*END
*D_NET *27 0.00061584
*CONN
*I *28:Y O *D _31
*I *29:B I *L 0
*I *30:A I *L 0
*I *31:D I *L 0
*CAP
1 27_1 0.0002784
2 27_2 0.0001068
3 27_3 0.000102
4 27_4 0.00012864
*RES
1 *28:Y 27_1 2.61333
2 27_1 *29:B 0
3 27_1 27_2 0.793333
4 27_2 27_3 1.16667
5 27_3 *30:A 0
6 27_2 27_4 2.24
7 27_4 *31:D 0
*END
*D_NET *32 0.00038304
*CONN
*P *32 O
*I *33:A I *L 0
*I *34:B I *L 0
*I *35:A I *L 0
*CAP
1 32_1 8.784e-05
2 32_2 2.04e-05
3 32_3 0.0001632
4 32_4 7.8e-05
5 32_5 3.36e-05
*RES
1 *32 32_1 1.77333
2 32_1 32_2 0.233333
3 32_2 *33:A 0
4 32_2 32_3 1.86667
5 32_3 32_4 0.606667
6 32_4 *34:B 0
7 32_3 32_5 0.933333
8 32_5 *35:A 0
*END
*D_NET *36 0.00034848
*CONN
*I *37:Y O *D _33
*I *38:A I *L 0
*I *39:A I *L 0
*I *40:A I *L 0
*CAP
1 36_1 0.00010752
2 36_2 0
3 36_3 0.0001296
4 36_4 0.00011136
*RES
1 *37:Y 36_1 2.98667
2 36_1 36_2 0
3 36_2 *38:A 0
4 36_2 36_3 0.84
5 36_3 *39:A 0
6 36_1 36_4 2.42667
7 36_4 *40:A 0
*END
*D_NET *41 0.00032232
*CONN
*P *41 O
*I *42:B I *L 0
*I *43:A I *L 0
*I *44:A I *L 0
*CAP
1 41_1 0.0001224
2 41_2 0.0001188
3 41_3 0
4 41_4 8.112e-05
*RES
1 *41 41_1 1.4
2 41_1 *42:B 0
3 41_1 41_2 1.07333
4 41_2 41_3 0
5 41_3 *43:A 0
6 41_3 41_4 1.58667
7 41_4 *44:A 0
*END
*D_NET *45 0.000216
*CONN
*P *45 O
*I *46:A I *L 0
*I *47:A I *L 0
*I *48:A I *L 0
*CAP
1 45_1 5.376e-05
2 45_2 5.376e-05
3 45_3 0
4 45_4 6.768e-05
5 45_5 4.08e-05
*RES
1 *45 45_1 1.49333
2 45_1 45_2 1.49333
3 45_2 45_3 0
4 45_3 *46:A 0
5 45_2 45_4 1.21333
6 45_4 *47:A 0
7 45_1 45_5 0.466667
8 45_5 *48:A 0
*END
*D_NET *49 0.0002904
*CONN
*I *50:Y O *D _29
*I *51:A I *L 0
*I *52:B I *L 0
*CAP
1 49_1 0.0002328
2 49_2 5.76e-05
*RES
1 *50:Y 49_1 4.57333
2 49_1 *51:A 0
3 49_1 49_2 0.373333
4 49_2 *52:B 0
*END
*D_NET *53 0.00015912
*CONN
*P *53 O
*I *54:A I *L 0
*I *55:A I *L 0
*CAP
1 53_1 0.00010152
2 53_2 5.76e-05
*RES
1 *53 53_1 1.82
2 53_1 *54:A 0
3 53_1 53_2 0.373333
4 53_2 *55:A 0
*END
*D_NET *56 0.00048336
*CONN
*I *57:Y O *D _35
*I *58:B I *L 0
*I *59:B I *L 0
*CAP
1 56_1 0.00017088
2 56_2 0.0001428
3 56_3 0.00016968
*RES
1 *57:Y 56_1 1.68
2 56_1 56_2 1.63333
3 56_2 *58:B 0
4 56_1 56_3 2.38
5 56_3 *59:B 0
*END
*D_NET *60 0.00024384
*CONN
*I *61:Y O *D _39
*I *62:C I *L 0
*I *63:B I *L 0
*CAP
1 60_1 0.00014256
2 60_2 0
3 60_3 0.00010128
*RES
1 *61:Y 60_1 1.96
2 60_1 60_2 0
3 60_2 *62:C 0
4 60_1 60_3 2.14667
5 60_3 *63:B 0
*END
*D_NET *64 0.00020016
*CONN
*I *65:Q O *D _66
*I *66:A I *L 0
*I *67:B I *L 0
*CAP
1 64_1 5.76e-05
2 64_2 0.00014256
*RES
1 *65:Q 64_1 0.373333
2 64_1 *66:A 0
3 64_1 64_2 1.96
4 64_2 *67:B 0
*END
*D_NET *68 0.00027744
*CONN
*I *69:Y O *D _45
*I *70:B I *L 0
*I *71:C I *L 0
*CAP
1 68_1 2.688e-05
2 68_2 0
3 68_3 0.00025056
*RES
1 *69:Y 68_1 0.746667
2 68_1 68_2 0
3 68_2 *70:B 0
4 68_1 68_3 4.29333
5 68_3 *71:C 0
*END
*D_NET *72 0.00027984
*CONN
*I *73:Y O *D _51
*I *74:B I *L 0
*I *75:B I *L 0
*CAP
1 72_1 7.776e-05
2 72_2 0
3 72_3 0.00020208
*RES
1 *73:Y 72_1 0.933333
2 72_1 72_2 0
3 72_2 *74:B 0
4 72_1 72_3 4.94667
5 72_3 *75:B 0
*END
*D_NET *76 0.00035088
*CONN
*I *77:Q O *D _69
*I *78:A I *L 0
*I *79:B I *L 0
*CAP
1 76_1 3.264e-05
2 76_2 8.16e-05
3 76_3 0.00023664
*RES
1 *77:Q 76_1 0.373333
2 76_1 76_2 0.933333
3 76_2 *78:A 0
4 76_1 76_3 2.70667
5 76_3 *79:B 0
*END
*D_NET *80 0.00018432
*CONN
*I *81:Y O *D _28
*I *82:A I *L 0
*CAP
1 80_1 0.00018432
*RES
1 *81:Y 80_1 2.05333
2 80_1 *82:A 0
*END
*D_NET *83 8.64e-05
*CONN
*I *84:Y O *D _30
*I *85:A I *L 0
*CAP
1 83_1 8.64e-05
*RES
1 *84:Y 83_1 0.56
2 83_1 *85:A 0
*END
*D_NET *86 4.032e-05
*CONN
*I *87:Y O *D _32
*I *88:D I *L 0
*CAP
1 86_1 4.032e-05
*RES
1 *87:Y 86_1 1.12
2 86_1 *88:D 0
*END
*D_NET *89 7.776e-05
*CONN
*I *90:Y O *D _34
*I *91:B I *L 0
*CAP
1 89_1 7.776e-05
*RES
1 *90:Y 89_1 0.933333
2 89_1 *91:B 0
*END
*D_NET *92 8.64e-05
*CONN
*I *93:Y O *D _36
*I *94:A I *L 0
*CAP
1 92_1 8.64e-05
*RES
1 *93:Y 92_1 0.56
2 92_1 *94:A 0
*END
*D_NET *95 0.0001428
*CONN
*I *96:Y O *D _37
*I *97:A I *L 0
*CAP
1 95_1 0.0001428
*RES
1 *96:Y 95_1 1.63333
2 95_1 *97:A 0
*END
*D_NET *98 5.76e-05
*CONN
*I *99:Y O *D _38
*I *100:B I *L 0
*CAP
1 98_1 5.76e-05
*RES
1 *99:Y 98_1 0.373333
2 98_1 *100:B 0
*END
*D_NET *101 0.00041688
*CONN
*I *102:Y O *D _40
*I *103:A I *L 0
*CAP
1 101_1 0.00041688
*RES
1 *102:Y 101_1 8.07333
2 101_1 *103:A 0
*END
*D_NET *104 5.76e-05
*CONN
*I *105:Y O *D _41
*I *106:A I *L 0
*CAP
1 104_1 5.76e-05
*RES
1 *105:Y 104_1 0.373333
2 104_1 *106:A 0
*END
*D_NET *107 0.0001632
*CONN
*I *108:Y O *D _42
*I *109:B I *L 0
*CAP
1 107_1 0.0001632
*RES
1 *108:Y 107_1 1.86667
2 107_1 *109:B 0
*END
*D_NET *110 0.00022368
*CONN
*I *111:Y O *D _43
*I *112:D I *L 0
*CAP
1 110_1 0.00022368
*RES
1 *111:Y 110_1 3.54667
2 110_1 *112:D 0
*END
*D_NET *113 0.00018336
*CONN
*I *114:Y O *D _44
*I *115:B I *L 0
*CAP
1 113_1 0.00018336
*RES
1 *114:Y 113_1 2.42667
2 113_1 *115:B 0
*END
*D_NET *116 0.00012144
*CONN
*I *117:Y O *D _46
*I *118:A I *L 0
*CAP
1 116_1 0.00012144
*RES
1 *117:Y 116_1 2.70667
2 116_1 *118:A 0
*END
*D_NET *119 0.0002172
*CONN
*I *120:Y O *D _47
*I *121:A I *L 0
*CAP
1 119_1 0.0002172
*RES
1 *120:Y 119_1 3.03333
2 119_1 *121:A 0
*END
*D_NET *122 0.0002712
*CONN
*I *123:Y O *D _48
*I *124:A I *L 0
*CAP
1 122_1 0.0002712
*RES
1 *123:Y 122_1 4.2
2 122_1 *124:A 0
*END
*D_NET *125 3.36e-05
*CONN
*I *126:Y O *D _49
*I *127:D I *L 0
*CAP
1 125_1 3.36e-05
*RES
1 *126:Y 125_1 0.933333
2 125_1 *127:D 0
*END
*D_NET *128 5.76e-05
*CONN
*I *129:Y O *D _50
*I *130:A I *L 0
*CAP
1 128_1 5.76e-05
*RES
1 *129:Y 128_1 0.373333
2 128_1 *130:A 0
*END
*D_NET *131 5.76e-05
*CONN
*I *132:Y O *D _52
*I *133:A I *L 0
*CAP
1 131_1 5.76e-05
*RES
1 *132:Y 131_1 0.373333
2 131_1 *133:A 0
*END
*D_NET *134 0.0002592
*CONN
*I *135:Y O *D _53
*I *136:D I *L 0
*CAP
1 134_1 0.0002592
*RES
1 *135:Y 134_1 2.8
2 134_1 *136:D 0
*END
*D_NET *137 0.0001428
*CONN
*I *138:Y O *D _54
*I *139:D I *L 0
*CAP
1 137_1 0.0001428
*RES
1 *138:Y 137_1 1.63333
2 137_1 *139:D 0
*END
*D_NET *140 7.776e-05
*CONN
*I *141:Y O *D _55
*P *140 I
*CAP
1 140_1 7.776e-05
*RES
1 *141:Y 140_1 0.933333
2 140_1 *140 0
*END
*D_NET *142 6.768e-05
*CONN
*I *143:Y O *D _56
*P *142 I
*CAP
1 142_1 6.768e-05
*RES
1 *143:Y 142_1 1.21333
2 142_1 *142 0
*END
*D_NET *144 8.784e-05
*CONN
*I *145:Y O *D _57
*P *144 I
*CAP
1 144_1 8.784e-05
*RES
1 *145:Y 144_1 1.77333
2 144_1 *144 0
*END
*D_NET *146 0.00013464
*CONN
*I *147:Y O *D _58
*P *146 I
*CAP
1 146_1 0.00013464
*RES
1 *147:Y 146_1 1.54
2 146_1 *146 0
*END
*D_NET *148 5.376e-05
*CONN
*I *149:Y O *D _59
*P *148 I
*CAP
1 148_1 5.376e-05
*RES
1 *149:Y 148_1 1.49333
2 148_1 *148 0
*END
*D_NET *150 0.00011424
*CONN
*I *151:Y O *D _60
*P *150 I
*CAP
1 150_1 0.00011424
*RES
1 *151:Y 150_1 1.30667
2 150_1 *150 0
*END
*D_NET *152 0.00013464
*CONN
*I *153:Y O *D _61
*P *152 I
*CAP
1 152_1 0.00013464
*RES
1 *153:Y 152_1 1.54
2 152_1 *152 0
*END
*D_NET *154 0.00013464
*CONN
*I *155:Y O *D _62
*P *154 I
*CAP
1 154_1 0.00013464
*RES
1 *155:Y 154_1 1.54
2 154_1 *154 0
*END
*D_NET *156 0.00013464
*CONN
*I *157:Y O *D _63
*P *156 I
*CAP
1 156_1 0.00013464
*RES
1 *157:Y 156_1 1.54
2 156_1 *156 0
*END
*D_NET *158 0.00011424
*CONN
*I *159:Y O *D _64
*P *158 I
*CAP
1 158_1 0.00011424
*RES
1 *159:Y 158_1 1.30667
2 158_1 *158 0
*END
