* NGSPICE file created from uProcessor.ext - technology: scmos

* Black-box entry subcircuit for NAND3X1 abstract view
.subckt NAND3X1 A B C gnd Y vdd
.ends

* Black-box entry subcircuit for BUFX2 abstract view
.subckt BUFX2 A gnd Y vdd
.ends

* Black-box entry subcircuit for NOR2X1 abstract view
.subckt NOR2X1 A B gnd Y vdd
.ends

* Black-box entry subcircuit for OAI21X1 abstract view
.subckt OAI21X1 A B C gnd Y vdd
.ends

* Black-box entry subcircuit for INVX1 abstract view
.subckt INVX1 A gnd Y vdd
.ends

* Black-box entry subcircuit for FILL abstract view
.subckt FILL gnd vdd
.ends

* Black-box entry subcircuit for INVX8 abstract view
.subckt INVX8 A gnd Y vdd
.ends

* Black-box entry subcircuit for NAND2X1 abstract view
.subckt NAND2X1 A B gnd Y vdd
.ends

* Black-box entry subcircuit for OAI22X1 abstract view
.subckt OAI22X1 A B C D gnd Y vdd
.ends

* Black-box entry subcircuit for MUX2X1 abstract view
.subckt MUX2X1 A B S gnd Y vdd
.ends

* Black-box entry subcircuit for DFFPOSX1 abstract view
.subckt DFFPOSX1 Q CLK D gnd vdd
.ends

* Black-box entry subcircuit for AND2X2 abstract view
.subckt AND2X2 A B gnd Y vdd
.ends

* Black-box entry subcircuit for AOI21X1 abstract view
.subckt AOI21X1 A B C gnd Y vdd
.ends

* Black-box entry subcircuit for XNOR2X1 abstract view
.subckt XNOR2X1 A B gnd Y vdd
.ends

* Black-box entry subcircuit for OR2X2 abstract view
.subckt OR2X2 A B gnd Y vdd
.ends

* Black-box entry subcircuit for AOI22X1 abstract view
.subckt AOI22X1 A B C D gnd Y vdd
.ends

* Black-box entry subcircuit for NOR3X1 abstract view
.subckt NOR3X1 A B C gnd Y vdd
.ends

* Black-box entry subcircuit for INVX4 abstract view
.subckt INVX4 A gnd Y vdd
.ends

* Black-box entry subcircuit for CLKBUF1 abstract view
.subckt CLKBUF1 A gnd Y vdd
.ends

* Black-box entry subcircuit for XOR2X1 abstract view
.subckt XOR2X1 A B gnd Y vdd
.ends

* Black-box entry subcircuit for INVX2 abstract view
.subckt INVX2 A gnd Y vdd
.ends

.subckt uProcessor gnd vdd adrs_bus[15] adrs_bus[14] adrs_bus[13] adrs_bus[12] adrs_bus[11]
+ adrs_bus[10] adrs_bus[9] adrs_bus[8] adrs_bus[7] adrs_bus[6] adrs_bus[5] adrs_bus[4]
+ adrs_bus[3] adrs_bus[2] adrs_bus[1] adrs_bus[0] clock data_in[15] data_in[14] data_in[13]
+ data_in[12] data_in[11] data_in[10] data_in[9] data_in[8] data_in[7] data_in[6]
+ data_in[5] data_in[4] data_in[3] data_in[2] data_in[1] data_in[0] data_out[15] data_out[14]
+ data_out[13] data_out[12] data_out[11] data_out[10] data_out[9] data_out[8] data_out[7]
+ data_out[6] data_out[5] data_out[4] data_out[3] data_out[2] data_out[1] data_out[0]
+ mem_rd mem_wr reset
X_3086_ _2307_/Y _3190_/B _3242_/C gnd _3090_/B vdd NAND3X1
X_2106_ _2711_/D gnd data_out[2] vdd BUFX2
X_3155_ _3154_/Y _3155_/B gnd _3155_/Y vdd NOR2X1
X_2939_ _2863_/Y _2933_/Y _2938_/Y gnd _2940_/A vdd NAND3X1
X_3988_ _3988_/A _3945_/B _3999_/C gnd _3988_/Y vdd OAI21X1
X_4609_ _3487_/B gnd _4609_/Y vdd INVX1
XSFILL44400x26100 gnd vdd FILL
XSFILL29680x100 gnd vdd FILL
XSFILL29840x24100 gnd vdd FILL
X_3911_ _4025_/B gnd _3911_/Y vdd INVX8
X_3842_ _3842_/A _3842_/B gnd _3842_/Y vdd NOR2X1
X_3773_ _4331_/Q _3768_/B gnd _3773_/Y vdd NAND2X1
X_2655_ _2594_/Y _2637_/Y _2655_/C gnd _2655_/Y vdd OAI21X1
X_2724_ _2697_/A _2701_/B _2724_/C _2822_/B gnd _2724_/Y vdd OAI22X1
X_2586_ _2686_/A gnd _2642_/D vdd INVX1
XSFILL59440x42100 gnd vdd FILL
X_4256_ _4256_/A _4256_/B _4090_/S gnd _4256_/Y vdd MUX2X1
X_4187_ _4186_/Y _4182_/Y _4220_/S gnd _4187_/Y vdd MUX2X1
X_3207_ _3206_/Y _3207_/B gnd _3226_/A vdd NOR2X1
X_4325_ _4192_/A _4318_/CLK _4325_/D gnd vdd DFFPOSX1
X_3069_ _3069_/A _3069_/B gnd _3070_/C vdd NOR2X1
X_3138_ _2313_/Y _3092_/B _2951_/B gnd _3138_/Y vdd NAND3X1
XBUFX2_insert100 _3843_/Y gnd _3868_/B vdd BUFX2
XBUFX2_insert133 _3742_/Y gnd _3748_/B vdd BUFX2
XBUFX2_insert122 _3646_/Q gnd _4142_/C vdd BUFX2
XBUFX2_insert111 _3568_/Y gnd _3578_/B vdd BUFX2
XBUFX2_insert188 _4458_/Q gnd _4076_/A vdd BUFX2
XBUFX2_insert144 _3809_/Y gnd _3832_/B vdd BUFX2
XBUFX2_insert199 _4455_/Q gnd _2368_/A vdd BUFX2
XBUFX2_insert166 _4436_/Q gnd _4188_/A vdd BUFX2
X_2440_ _4589_/B gnd _2440_/Y vdd INVX1
XBUFX2_insert177 _4433_/Q gnd _2892_/A vdd BUFX2
XBUFX2_insert155 _4448_/Q gnd _3966_/A vdd BUFX2
X_4041_ _4041_/A _4039_/Y _3981_/C _4041_/D gnd _4042_/A vdd OAI22X1
X_2371_ _2355_/A _2389_/B gnd _3351_/A vdd AND2X2
X_4110_ _4110_/A _4110_/B _4220_/S gnd _4112_/A vdd MUX2X1
X_3756_ _3823_/A _3766_/B _3755_/Y gnd _4322_/D vdd OAI21X1
X_3825_ _3678_/A _3818_/B _3824_/Y gnd _4387_/D vdd AOI21X1
X_2638_ _4221_/A gnd _2638_/Y vdd INVX1
X_2569_ _2571_/A gnd _2569_/Y vdd INVX1
X_3687_ _3731_/A _3657_/B _3687_/C gnd _3687_/Y vdd AOI21X1
X_2707_ _2803_/D gnd _2721_/B vdd INVX1
X_4239_ _4239_/A _4213_/B gnd _4241_/B vdd NOR2X1
X_4308_ _4308_/Q _4337_/CLK _3861_/Y gnd vdd DFFPOSX1
XSFILL29360x36100 gnd vdd FILL
X_3610_ _3610_/A _3608_/Y _3625_/C gnd _3610_/Y vdd AOI21X1
X_4590_ _3548_/A _4588_/Y _4589_/Y gnd _4590_/Y vdd OAI21X1
X_2423_ _2874_/A _4188_/A gnd _2423_/Y vdd XNOR2X1
X_3472_ _3466_/Y _3471_/Y gnd _3472_/Y vdd NAND2X1
X_3541_ _3499_/A _3541_/B _3540_/Y gnd _3541_/Y vdd NAND3X1
X_4024_ _4374_/Q _4050_/B gnd _4024_/Y vdd NOR2X1
X_2285_ _4265_/A _2571_/A gnd _2285_/Y vdd XNOR2X1
X_2354_ _2546_/A _2381_/B gnd _2354_/Y vdd OR2X2
XBUFX2_insert0 _4457_/Q gnd _2103_/A vdd BUFX2
X_3739_ _3839_/A _3733_/B _3739_/C gnd _3739_/Y vdd OAI21X1
X_3808_ _3875_/A _3802_/B _3807_/Y gnd _4363_/D vdd OAI21X1
XSFILL14800x16100 gnd vdd FILL
XSFILL30640x38100 gnd vdd FILL
XSFILL44400x34100 gnd vdd FILL
X_2972_ _2972_/A _3291_/B _2972_/C gnd _2973_/B vdd OAI21X1
X_4573_ _4573_/Q _4580_/CLK _4495_/Y gnd vdd DFFPOSX1
X_2406_ _2406_/A _2405_/Y gnd _2418_/A vdd NAND2X1
X_3386_ _3386_/A gnd _3386_/Y vdd INVX1
X_3455_ data_in[3] gnd _3455_/Y vdd INVX1
X_3524_ _3503_/A _3482_/B _3523_/Y gnd _3527_/B vdd OAI21X1
XSFILL59440x50100 gnd vdd FILL
X_2268_ _2546_/A gnd _2270_/B vdd INVX1
X_4007_ _4007_/A _3974_/B _3985_/C gnd _4008_/A vdd OAI21X1
X_2337_ _2337_/A _2337_/B gnd _3346_/A vdd NOR2X1
X_2199_ _2308_/B _2308_/A gnd _2200_/A vdd NOR2X1
XSFILL59920x28100 gnd vdd FILL
XSFILL43920x22100 gnd vdd FILL
XSFILL59600x10100 gnd vdd FILL
X_3240_ _3236_/Y _3240_/B gnd _3240_/Y vdd NOR2X1
XSFILL14320x28100 gnd vdd FILL
X_2122_ _4480_/C gnd _2124_/B vdd INVX1
X_3171_ _2989_/A gnd gnd _2989_/D gnd _3172_/C vdd AOI22X1
X_2955_ _3603_/A _2944_/B gnd _2955_/Y vdd NOR2X1
X_2886_ _2884_/Y _2919_/A _2886_/C _2886_/D gnd _2886_/Y vdd AOI22X1
X_4556_ _4582_/Q _2158_/A _4544_/Y gnd _4559_/B vdd NAND3X1
X_4625_ _3565_/A _2426_/B gnd _4625_/Y vdd NAND2X1
X_3507_ _3501_/Y _3506_/Y gnd _3507_/Y vdd NAND2X1
X_4487_ _4560_/A _4487_/B _4492_/A _4560_/D gnd _4487_/Y vdd AOI22X1
X_3438_ _3425_/A _3438_/B gnd _3438_/Y vdd NAND2X1
X_3369_ _3367_/Y _3291_/B _3368_/Y gnd _3369_/Y vdd OAI21X1
X_2740_ _2767_/A _2765_/A gnd _2741_/C vdd NAND2X1
X_2671_ _2747_/A _2666_/Y gnd _2671_/Y vdd NAND2X1
X_4410_ _4071_/B _4387_/CLK _3699_/Y gnd vdd DFFPOSX1
X_3223_ _2989_/A gnd gnd _2989_/D gnd _3224_/C vdd AOI22X1
X_4272_ _4414_/Q _4283_/B gnd _4272_/Y vdd NOR2X1
X_4341_ _4018_/A _4355_/CLK _4341_/D gnd vdd DFFPOSX1
X_2105_ _2767_/A gnd data_out[15] vdd BUFX2
X_3154_ _3152_/Y _3336_/B _3154_/C _2998_/D gnd _3154_/Y vdd OAI22X1
X_3085_ gnd _3345_/B gnd _3085_/Y vdd NAND2X1
X_3987_ _3987_/A _3987_/B _4053_/S gnd _3989_/A vdd MUX2X1
X_2938_ _2938_/A _2938_/B gnd _2938_/Y vdd AND2X2
X_2869_ _2324_/A gnd _2869_/Y vdd INVX1
X_4608_ _3566_/A _4608_/B _4608_/C gnd _4514_/B vdd OAI21X1
X_4539_ _4580_/Q _4550_/C _4506_/A gnd _4539_/Y vdd OAI21X1
XFILL71120x44100 gnd vdd FILL
XSFILL29840x40100 gnd vdd FILL
X_3772_ _3839_/A _3768_/B _3772_/C gnd _4330_/D vdd OAI21X1
X_3910_ _3777_/A _3910_/B _4062_/B gnd _3910_/Y vdd MUX2X1
X_3841_ _3875_/A _3835_/B _3841_/C gnd _4395_/D vdd AOI21X1
X_2723_ _2723_/A _2712_/Y _2722_/Y gnd _2731_/A vdd OAI21X1
X_2654_ _2579_/Y _2644_/Y _2654_/C gnd _2655_/C vdd AOI21X1
X_2585_ _2581_/Y _2583_/Y _2585_/C gnd _2593_/B vdd NAND3X1
X_4324_ _4324_/Q _4316_/CLK _3760_/Y gnd vdd DFFPOSX1
X_4255_ _4255_/A _4222_/B _4254_/Y gnd _4442_/D vdd AOI21X1
X_4186_ _4186_/A _4184_/Y _4094_/C _4186_/D gnd _4186_/Y vdd OAI22X1
X_3206_ _3206_/A _3336_/B _3206_/C _2998_/D gnd _3206_/Y vdd OAI22X1
X_3137_ gnd _3345_/B gnd _3142_/A vdd NAND2X1
X_3068_ _3068_/A _3068_/B _3068_/C gnd _3069_/B vdd NAND3X1
XBUFX2_insert145 _4442_/Q gnd _2853_/C vdd BUFX2
XBUFX2_insert134 _3742_/Y gnd _3767_/B vdd BUFX2
XBUFX2_insert167 _4436_/Q gnd _2365_/B vdd BUFX2
XBUFX2_insert101 _3843_/Y gnd _3852_/B vdd BUFX2
XBUFX2_insert156 _4448_/Q gnd _2699_/C vdd BUFX2
XBUFX2_insert123 _3412_/Y gnd _3424_/B vdd BUFX2
XBUFX2_insert112 _3568_/Y gnd _3588_/B vdd BUFX2
XBUFX2_insert189 _4458_/Q gnd _2852_/A vdd BUFX2
XBUFX2_insert178 _4433_/Q gnd _2308_/B vdd BUFX2
X_4040_ _4343_/Q _3915_/S _3981_/C gnd _4041_/A vdd OAI21X1
X_2370_ _2546_/A _2381_/B gnd _3325_/A vdd AND2X2
XSFILL14320x36100 gnd vdd FILL
X_3755_ _3755_/A _3766_/B gnd _3755_/Y vdd NAND2X1
X_3686_ _4406_/Q _3657_/B gnd _3687_/C vdd NOR2X1
X_3824_ _3990_/B _3818_/B gnd _3824_/Y vdd NOR2X1
X_2706_ _2719_/A gnd _2706_/Y vdd INVX1
X_2499_ _2509_/B _2499_/B gnd _2511_/A vdd AND2X2
X_2568_ _2564_/Y _2568_/B gnd _3360_/A vdd NAND2X1
X_4307_ _3858_/A _4387_/CLK _4307_/D gnd vdd DFFPOSX1
X_2637_ _2637_/A _2625_/B _2636_/Y gnd _2637_/Y vdd AOI21X1
X_4238_ _4425_/Q _4409_/Q _4238_/S gnd _4241_/D vdd MUX2X1
X_4169_ _3724_/C _4140_/B gnd _4171_/B vdd NOR2X1
X_3540_ _3540_/A _3498_/B _3498_/C gnd _3540_/Y vdd NAND3X1
X_2353_ _2353_/A _2353_/B gnd _3279_/A vdd OR2X2
X_3471_ _3499_/A _3468_/Y _3470_/Y gnd _3471_/Y vdd NAND3X1
X_2422_ _2329_/A _2399_/B gnd _2422_/Y vdd XNOR2X1
X_4023_ _4201_/A _4390_/Q _4045_/S gnd _4026_/D vdd MUX2X1
XBUFX2_insert1 _4457_/Q gnd _2381_/A vdd BUFX2
X_2284_ _2270_/Y _2283_/Y _2274_/Y gnd _2284_/Y vdd OAI21X1
XSFILL29520x12100 gnd vdd FILL
XSFILL59440x48100 gnd vdd FILL
X_3738_ _3740_/A _3732_/B _4378_/Q gnd _3739_/C vdd OAI21X1
X_3807_ _4256_/A _3807_/B gnd _3807_/Y vdd NAND2X1
X_3669_ _3752_/A _3678_/B _3669_/C gnd _3669_/Y vdd AOI21X1
XSFILL14800x32100 gnd vdd FILL
XSFILL59120x30100 gnd vdd FILL
XSFILL44400x50100 gnd vdd FILL
XFILL71120x52100 gnd vdd FILL
X_2971_ _2971_/A _2950_/Y gnd _3291_/B vdd NAND2X1
X_4572_ _4492_/A _4389_/CLK _4572_/D gnd vdd DFFPOSX1
X_3523_ _3523_/A gnd _3523_/Y vdd INVX1
X_2405_ _4032_/A _4210_/A gnd _2405_/Y vdd XNOR2X1
X_2336_ _2355_/A _2389_/B gnd _2337_/B vdd AND2X2
X_3385_ _3432_/A _3385_/B gnd _3386_/A vdd NOR2X1
XSFILL59760x6100 gnd vdd FILL
X_3454_ _3503_/A _3482_/B _3453_/Y gnd _3454_/Y vdd OAI21X1
X_2267_ _2855_/A gnd _2270_/A vdd INVX1
X_4006_ _4308_/Q _3973_/B gnd _4006_/Y vdd NOR2X1
X_2198_ _2189_/Y _2195_/Y gnd _2201_/A vdd NOR2X1
XSFILL59920x44100 gnd vdd FILL
X_3170_ gnd _3092_/B _2957_/B gnd _3172_/A vdd NAND3X1
X_2121_ _2144_/A _2121_/B _2120_/Y gnd _2083_/A vdd OAI21X1
XSFILL14320x44100 gnd vdd FILL
X_2954_ _2954_/A gnd _2958_/C vdd INVX1
XSFILL29520x4100 gnd vdd FILL
X_2885_ _2883_/D gnd _2886_/D vdd INVX1
X_4486_ _4506_/A _4486_/B _4497_/B gnd _4488_/A vdd NAND3X1
X_4555_ _4554_/Y _4460_/A gnd _4555_/Y vdd AND2X2
X_4624_ _3522_/B gnd _4624_/Y vdd INVX1
X_3506_ _3499_/A _3503_/Y _3505_/Y gnd _3506_/Y vdd NAND3X1
X_2319_ _2319_/A _2318_/Y gnd _3190_/A vdd NOR2X1
X_3437_ _3424_/Y _3436_/Y gnd _3437_/Y vdd NAND2X1
X_3368_ gnd _2969_/B gnd _3368_/Y vdd NAND2X1
X_3299_ _3299_/A _3091_/B gnd _3302_/B vdd NAND2X1
X_2670_ _2853_/C _2669_/Y gnd _2672_/B vdd NAND2X1
X_4340_ _4007_/A _4318_/CLK _3894_/Y gnd vdd DFFPOSX1
X_2104_ _2104_/A gnd data_out[14] vdd BUFX2
X_3222_ gnd _3243_/C _3248_/C gnd _3224_/A vdd NAND3X1
X_4271_ _3660_/A _4283_/B _4270_/Y gnd _4271_/Y vdd AOI21X1
X_3153_ gnd gnd _3154_/C vdd INVX1
X_3084_ _3084_/A _3083_/Y gnd _3084_/Y vdd NOR2X1
XSFILL29520x20100 gnd vdd FILL
X_2868_ _2642_/B _2868_/B gnd _2871_/A vdd NAND2X1
X_3986_ _3986_/A _3984_/Y _3985_/C _3986_/D gnd _3987_/A vdd OAI22X1
X_4607_ _3566_/A _4177_/A gnd _4608_/C vdd NAND2X1
X_2937_ _2914_/B _2937_/B gnd _2938_/A vdd NOR2X1
X_4469_ _4468_/Y _4464_/Y _4460_/Y gnd _4469_/Y vdd AOI21X1
X_4538_ _4532_/A _4538_/B _4519_/Y gnd _4550_/C vdd NOR3X1
X_2799_ _2359_/A gnd _2800_/D vdd INVX1
XSFILL14640x2100 gnd vdd FILL
XSFILL43920x28100 gnd vdd FILL
XSFILL59600x16100 gnd vdd FILL
X_3771_ _4069_/A _3768_/B gnd _3772_/C vdd NAND2X1
X_3840_ _4256_/B _3811_/B gnd _3841_/C vdd NOR2X1
X_2722_ _2721_/Y _2722_/B _2719_/Y gnd _2722_/Y vdd AOI21X1
X_2584_ _2642_/B _2679_/A gnd _2585_/C vdd XNOR2X1
X_2653_ _2653_/A _2579_/B _2652_/Y gnd _2654_/C vdd OAI21X1
X_4323_ _4170_/A _4387_/CLK _4323_/D gnd vdd DFFPOSX1
X_4254_ _2853_/C _4076_/B _4076_/C gnd _4254_/Y vdd OAI21X1
X_4185_ _4007_/A _4260_/S _4094_/C gnd _4186_/A vdd OAI21X1
X_3205_ gnd gnd _3206_/C vdd INVX1
X_3136_ _3136_/A _3136_/B gnd _3136_/Y vdd NOR2X1
X_3067_ _2989_/A gnd gnd _2989_/D gnd _3068_/C vdd AOI22X1
X_3969_ _4369_/Q _4039_/B gnd _3971_/B vdd NOR2X1
XSFILL44880x30100 gnd vdd FILL
XBUFX2_insert102 _3843_/Y gnd _3855_/B vdd BUFX2
XBUFX2_insert168 _4436_/Q gnd _2877_/A vdd BUFX2
XBUFX2_insert135 _3742_/Y gnd _3752_/B vdd BUFX2
XBUFX2_insert146 _4442_/Q gnd _2389_/B vdd BUFX2
XBUFX2_insert157 _4448_/Q gnd _2893_/A vdd BUFX2
XBUFX2_insert113 _3568_/Y gnd _3575_/B vdd BUFX2
XBUFX2_insert179 _4433_/Q gnd _4155_/A vdd BUFX2
XBUFX2_insert124 _3412_/Y gnd _3425_/A vdd BUFX2
X_3823_ _3823_/A _3832_/B _3823_/C gnd _3823_/Y vdd AOI21X1
X_3754_ _3788_/A _3766_/B _3753_/Y gnd _3754_/Y vdd OAI21X1
X_3685_ _3507_/Y gnd _3731_/A vdd INVX4
X_2636_ _2636_/A _2633_/Y _2636_/C _2610_/A gnd _2636_/Y vdd OAI22X1
X_2705_ _2696_/Y _2759_/B gnd _2731_/B vdd NOR2X1
X_4237_ _4237_/A _4235_/Y _4236_/C _4234_/Y gnd _4242_/B vdd OAI22X1
X_2498_ _2498_/A _2788_/C gnd _2509_/B vdd OR2X2
X_2567_ _2562_/Y _2566_/Y gnd _2568_/B vdd NAND2X1
X_4306_ _3856_/A _4338_/CLK _4306_/D gnd vdd DFFPOSX1
X_4099_ _4099_/A _4099_/B _4220_/S gnd _4101_/A vdd MUX2X1
X_4168_ _3990_/A _3990_/B _4190_/S gnd _4168_/Y vdd MUX2X1
X_3119_ _2989_/A gnd gnd _2989_/D gnd _3120_/C vdd AOI22X1
XSFILL44400x48100 gnd vdd FILL
X_2352_ _2368_/A _2326_/B gnd _2352_/Y vdd OR2X2
X_2283_ _2282_/Y _2256_/Y _2266_/A gnd _2283_/Y vdd AOI21X1
X_3470_ _3470_/A _3498_/B _3498_/C gnd _3470_/Y vdd NAND3X1
X_2421_ _2419_/Y _2420_/Y gnd _2421_/Y vdd NAND2X1
XBUFX2_insert2 _4457_/Q gnd _2546_/A vdd BUFX2
X_4022_ _4020_/Y _4188_/B _4021_/Y gnd _4022_/Y vdd AOI21X1
X_3806_ _3839_/A _3802_/B _3805_/Y gnd _4362_/D vdd OAI21X1
X_3737_ _4295_/A _3733_/B _3736_/Y gnd _3737_/Y vdd OAI21X1
X_3668_ _4400_/Q _3678_/B gnd _3669_/C vdd NOR2X1
X_3599_ _3605_/A data_in[13] gnd _3601_/B vdd NAND2X1
X_2619_ _2619_/A _2619_/B gnd _2622_/A vdd NAND2X1
XSFILL43920x36100 gnd vdd FILL
X_2970_ _2943_/A _3603_/A gnd _2970_/Y vdd AND2X2
X_4571_ _4480_/C _4389_/CLK _4481_/Y gnd vdd DFFPOSX1
X_3453_ _3070_/Y gnd _3453_/Y vdd INVX1
X_3522_ _3501_/A _3522_/B gnd _3522_/Y vdd NAND2X1
X_2404_ _4043_/A _4221_/A gnd _2406_/A vdd XNOR2X1
X_2335_ _2355_/A _2555_/A gnd _2337_/A vdd NOR2X1
X_2266_ _2266_/A gnd _2266_/Y vdd INVX1
X_3384_ _2983_/B gnd _3385_/B vdd INVX1
X_4005_ _4284_/A _4404_/Q _3974_/B gnd _4005_/Y vdd MUX2X1
X_2197_ _2193_/B _2195_/Y _2197_/C gnd _2216_/A vdd AOI21X1
XSFILL14000x24100 gnd vdd FILL
X_2120_ _2120_/A _4589_/B gnd _2120_/Y vdd NAND2X1
XCLKBUF1_insert20 clock gnd _4318_/CLK vdd CLKBUF1
X_2884_ _2884_/A gnd _2884_/Y vdd INVX1
X_4623_ _3548_/A _4621_/Y _4623_/C gnd _4623_/Y vdd OAI21X1
XSFILL29520x18100 gnd vdd FILL
X_2953_ _2435_/Y gnd _2958_/A vdd INVX1
X_4485_ _4485_/A gnd _4497_/B vdd INVX1
X_4554_ _4552_/Y _4551_/Y _4553_/Y gnd _4554_/Y vdd OAI21X1
X_3436_ _3499_/A _3430_/Y _3435_/Y gnd _3436_/Y vdd NAND3X1
X_3505_ _3505_/A _3498_/B _3498_/C gnd _3505_/Y vdd NAND3X1
XSFILL14800x38100 gnd vdd FILL
X_2249_ _2245_/Y _2249_/B gnd _2250_/B vdd NAND2X1
X_2318_ _2220_/B _2365_/B gnd _2318_/Y vdd AND2X2
X_3298_ _3298_/A _3298_/B _3298_/C gnd _3303_/A vdd NAND3X1
X_3367_ gnd gnd _3367_/Y vdd INVX1
XSFILL59120x36100 gnd vdd FILL
XSFILL59600x6100 gnd vdd FILL
X_4270_ _3928_/A _4283_/B gnd _4270_/Y vdd NOR2X1
X_2103_ _2103_/A gnd data_out[13] vdd BUFX2
X_3221_ _2366_/Y _3091_/B gnd _3224_/B vdd NAND2X1
X_3152_ _2485_/Y gnd _3152_/Y vdd INVX1
X_3083_ _3083_/A _3291_/B _3083_/C gnd _3083_/Y vdd OAI21X1
X_3985_ _4338_/Q _3974_/B _3985_/C gnd _3986_/A vdd OAI21X1
XSFILL59280x6100 gnd vdd FILL
X_2867_ _2101_/A gnd _2868_/B vdd INVX1
X_2798_ _2709_/A gnd _2798_/Y vdd INVX1
X_4606_ _3558_/Y gnd _4608_/B vdd INVX1
X_2936_ _2936_/A _2935_/Y gnd _2937_/B vdd NAND2X1
X_4399_ _3950_/B _4426_/CLK _4399_/D gnd vdd DFFPOSX1
X_4468_ _4560_/A _4587_/Y _4472_/A _4560_/D gnd _4468_/Y vdd AOI22X1
X_3419_ _3416_/B _3637_/CLK _3419_/D gnd vdd DFFPOSX1
X_4537_ _4544_/A _4530_/Y gnd _4545_/B vdd NOR2X1
XSFILL58640x24100 gnd vdd FILL
XSFILL44560x10100 gnd vdd FILL
XSFILL59600x32100 gnd vdd FILL
X_3770_ _4295_/A _3767_/B _3769_/Y gnd _4329_/D vdd OAI21X1
X_2652_ _2652_/A _2652_/B _2652_/C gnd _2652_/Y vdd OAI21X1
XSFILL29040x4100 gnd vdd FILL
X_2721_ _2300_/B _2721_/B gnd _2721_/Y vdd NOR2X1
XFILL71280x12100 gnd vdd FILL
X_4253_ _4252_/Y _4253_/B _4220_/S gnd _4255_/A vdd MUX2X1
X_2583_ _2676_/C _2582_/Y gnd _2583_/Y vdd NAND2X1
X_4322_ _3755_/A _4322_/CLK _4322_/D gnd vdd DFFPOSX1
X_3204_ _3204_/A gnd _3206_/A vdd INVX1
X_4184_ _4308_/Q _4151_/B gnd _4184_/Y vdd NOR2X1
X_3135_ _3133_/Y _3291_/B _3135_/C gnd _3136_/B vdd OAI21X1
X_3066_ gnd _3378_/B _3066_/C gnd _3068_/A vdd NAND3X1
X_3968_ _4353_/Q _4385_/Q _3915_/S gnd _3971_/D vdd MUX2X1
X_2919_ _2919_/A _2884_/Y gnd _2920_/B vdd NAND2X1
X_3899_ _4343_/Q _3899_/B gnd _3900_/C vdd NOR2X1
XBUFX2_insert158 _4439_/Q gnd _2779_/A vdd BUFX2
XBUFX2_insert103 _4456_/Q gnd _2666_/A vdd BUFX2
XBUFX2_insert169 _4436_/Q gnd _2685_/A vdd BUFX2
XBUFX2_insert147 _4442_/Q gnd _2847_/A vdd BUFX2
XBUFX2_insert114 _3568_/Y gnd _3616_/B vdd BUFX2
XBUFX2_insert136 _4451_/Q gnd _2314_/A vdd BUFX2
XBUFX2_insert125 _3412_/Y gnd _3501_/A vdd BUFX2
X_3822_ _4386_/Q _3832_/B gnd _3823_/C vdd NOR2X1
X_3753_ _3970_/A _3766_/B gnd _3753_/Y vdd NAND2X1
X_3684_ _3796_/A _3699_/B _3683_/Y gnd _4405_/D vdd AOI21X1
X_2704_ _2701_/Y _2703_/Y _2699_/Y gnd _2759_/B vdd NAND3X1
X_2635_ _2635_/A _2635_/B _2635_/C gnd _2636_/C vdd OAI21X1
X_4236_ _4058_/A _4223_/S _4236_/C gnd _4237_/A vdd OAI21X1
X_2497_ _2788_/C _2498_/A gnd _2499_/B vdd NAND2X1
X_2566_ _2565_/Y _2566_/B _2558_/Y gnd _2566_/Y vdd OAI21X1
X_4305_ _4305_/Q _4338_/CLK _3855_/Y gnd vdd DFFPOSX1
X_4167_ _4167_/A _4167_/B _4166_/Y gnd _4434_/D vdd AOI21X1
X_4098_ _4098_/A _4098_/B _4097_/C _4095_/Y gnd _4099_/A vdd OAI22X1
X_3049_ gnd gnd _3049_/Y vdd INVX1
X_3118_ gnd _3092_/B _2957_/B gnd _3120_/A vdd NAND3X1
XSFILL45040x30100 gnd vdd FILL
X_2420_ _3988_/A _4166_/A gnd _2420_/Y vdd XNOR2X1
XSFILL30320x50100 gnd vdd FILL
X_2351_ _2513_/B _2513_/A gnd _3227_/A vdd OR2X2
X_4021_ _2428_/A _4188_/B _4199_/C gnd _4021_/Y vdd OAI21X1
X_2282_ _2282_/A _2280_/Y _2282_/C gnd _2282_/Y vdd OAI21X1
XBUFX2_insert3 _4457_/Q gnd _2646_/A vdd BUFX2
X_3736_ _3740_/A _3732_/B _4377_/Q gnd _3736_/Y vdd OAI21X1
X_3805_ _4245_/A _3802_/B gnd _3805_/Y vdd NAND2X1
X_2549_ _2855_/A _2546_/Y gnd _2549_/Y vdd NAND2X1
X_3598_ _3598_/A _3598_/B _3577_/C gnd _3638_/D vdd AOI21X1
X_2618_ _2618_/A gnd _2619_/B vdd INVX1
X_3667_ _3465_/Y gnd _3752_/A vdd INVX4
X_4219_ _4219_/A _4217_/Y _4215_/C _4219_/D gnd _4220_/A vdd OAI22X1
XSFILL43920x52100 gnd vdd FILL
XSFILL59600x40100 gnd vdd FILL
X_4570_ _4570_/Q _4389_/CLK _4475_/Y gnd vdd DFFPOSX1
X_2403_ _2387_/Y _2403_/B gnd _2986_/A vdd NOR2X1
X_3383_ _3605_/A gnd _3389_/C vdd INVX1
X_3452_ _3425_/A _3452_/B gnd _3458_/A vdd NAND2X1
X_3521_ _3521_/A _3520_/Y gnd _3521_/Y vdd NAND2X1
XFILL71280x20100 gnd vdd FILL
X_4004_ _4004_/A _4002_/Y _4080_/C _4001_/Y gnd _4009_/B vdd OAI22X1
X_2265_ _2260_/Y _2263_/Y gnd _2266_/A vdd NAND2X1
X_2334_ _2332_/Y _2334_/B gnd _3320_/A vdd NOR2X1
X_2196_ _2308_/B _2308_/A gnd _2197_/C vdd AND2X2
X_3719_ _3752_/A _3733_/B _3718_/Y gnd _4368_/D vdd OAI21X1
XSFILL14000x40100 gnd vdd FILL
XCLKBUF1_insert21 clock gnd _4409_/CLK vdd CLKBUF1
XCLKBUF1_insert10 clock gnd _4344_/CLK vdd CLKBUF1
X_2952_ _2941_/Y _3333_/B _2942_/Y _3333_/D gnd _2959_/B vdd OAI22X1
X_2883_ _2883_/A _2348_/A _2882_/Y _2883_/D gnd _2887_/A vdd AOI22X1
X_4622_ _3548_/A _2399_/B gnd _4623_/C vdd NAND2X1
X_4553_ _4560_/A _4553_/B _4582_/Q _4560_/D gnd _4553_/Y vdd AOI22X1
X_4484_ _4483_/C _4491_/A gnd _4485_/A vdd NOR2X1
XSFILL14480x12100 gnd vdd FILL
X_3366_ _3366_/A _3340_/B _3365_/Y _3340_/D gnd _3366_/Y vdd OAI22X1
X_3435_ _3431_/Y _3498_/B _3498_/C gnd _3435_/Y vdd NAND3X1
X_3504_ data_in[10] gnd _3505_/A vdd INVX1
X_2248_ _2235_/Y _2247_/B gnd _2249_/B vdd NOR2X1
X_2317_ _2220_/B _2365_/B gnd _2319_/A vdd NOR2X1
X_3297_ _3296_/Y _3297_/B gnd _3298_/C vdd AND2X2
X_2179_ _2179_/A _2180_/C gnd _3061_/A vdd XNOR2X1
X_3220_ _3215_/Y _3220_/B _3220_/C gnd _3220_/Y vdd NAND3X1
X_2102_ _2102_/A gnd data_out[12] vdd BUFX2
X_3082_ gnd _2969_/B gnd _3083_/C vdd NAND2X1
X_3151_ _3151_/A _3333_/B _3150_/Y _3333_/D gnd _3155_/B vdd OAI22X1
X_3984_ _3856_/A _3980_/B gnd _3984_/Y vdd NOR2X1
X_2935_ _2935_/A _2935_/B gnd _2935_/Y vdd XNOR2X1
X_2866_ _2923_/B _2923_/A _2865_/Y _2324_/A gnd _2866_/Y vdd AOI22X1
X_4605_ _4605_/A _4605_/B _4604_/Y gnd _4507_/B vdd OAI21X1
X_4536_ _4580_/Q gnd _4544_/A vdd INVX1
X_2797_ _2794_/Y _2797_/B _2793_/Y gnd _2809_/B vdd OAI21X1
X_3349_ _3348_/Y _3347_/Y gnd _3349_/Y vdd AND2X2
X_4398_ _4398_/Q _4337_/CLK _4398_/D gnd vdd DFFPOSX1
X_3418_ _3389_/C _3419_/D gnd _3420_/D vdd NOR2X1
X_4467_ _4463_/B _4566_/A gnd _4560_/D vdd NOR2X1
XSFILL44880x44100 gnd vdd FILL
X_2582_ _2100_/A gnd _2582_/Y vdd INVX1
X_2651_ _2847_/A _2572_/Y gnd _2652_/B vdd NOR2X1
X_2720_ _2720_/A _2711_/A gnd _2722_/B vdd NAND2X1
X_4252_ _4252_/A _4252_/B _4251_/C _4249_/Y gnd _4252_/Y vdd OAI22X1
X_4321_ _3970_/A _4322_/CLK _3754_/Y gnd vdd DFFPOSX1
X_4183_ _4284_/A _4404_/Q _4260_/S gnd _4186_/D vdd MUX2X1
X_3203_ _3203_/A _3333_/B _3203_/C _3333_/D gnd _3207_/B vdd OAI22X1
X_3134_ gnd _2969_/B gnd _3135_/C vdd NAND2X1
X_3065_ _3065_/A _3091_/B gnd _3068_/B vdd NAND2X1
X_3898_ _3731_/A _3898_/B _3897_/Y gnd _3898_/Y vdd AOI21X1
X_3967_ _3967_/A _4188_/B _3966_/Y gnd _4448_/D vdd AOI21X1
X_2918_ _2886_/C _2886_/D gnd _2918_/Y vdd NOR2X1
X_2849_ _2571_/B gnd _2929_/A vdd INVX1
X_4519_ _4519_/A _4577_/Q _4518_/Y gnd _4519_/Y vdd NAND3X1
XBUFX2_insert115 _3646_/Q gnd _4251_/C vdd BUFX2
XBUFX2_insert104 _4456_/Q gnd _2353_/A vdd BUFX2
XBUFX2_insert159 _4439_/Q gnd _2326_/B vdd BUFX2
XBUFX2_insert148 _4442_/Q gnd _2555_/A vdd BUFX2
XBUFX2_insert137 _4451_/Q gnd _3999_/A vdd BUFX2
XBUFX2_insert126 _3412_/Y gnd _3445_/A vdd BUFX2
XSFILL28560x34100 gnd vdd FILL
X_3821_ _3788_/A _3832_/B _3821_/C gnd _3821_/Y vdd AOI21X1
X_3752_ _3752_/A _3752_/B _3751_/Y gnd _3752_/Y vdd OAI21X1
X_2565_ _2565_/A gnd _2565_/Y vdd INVX1
X_4304_ _4140_/A _4318_/CLK _3853_/Y gnd vdd DFFPOSX1
X_3683_ _4016_/B _3699_/B gnd _3683_/Y vdd NOR2X1
X_2703_ _2822_/B _2724_/C gnd _2703_/Y vdd NAND2X1
X_2634_ _2413_/B _2606_/Y _2634_/C _2634_/D gnd _2635_/C vdd OAI22X1
X_4235_ _4377_/Q _4235_/B gnd _4235_/Y vdd NOR2X1
X_2496_ _2685_/A gnd _2498_/A vdd INVX1
XSFILL29520x42100 gnd vdd FILL
X_3117_ _2362_/Y _3091_/B gnd _3117_/Y vdd NAND2X1
X_4166_ _4166_/A _4167_/B _4122_/C gnd _4166_/Y vdd OAI21X1
XSFILL14480x20100 gnd vdd FILL
X_4097_ _4097_/A _4097_/B _4097_/C gnd _4098_/A vdd OAI21X1
X_3048_ _3048_/A gnd _3048_/Y vdd INVX1
XSFILL59600x38100 gnd vdd FILL
XSFILL44560x16100 gnd vdd FILL
X_2350_ _2366_/A _2876_/A gnd _2350_/Y vdd OR2X2
X_2281_ _2252_/A _2253_/A gnd _2282_/C vdd NOR2X1
X_4020_ _4019_/Y _4020_/B _4053_/S gnd _4020_/Y vdd MUX2X1
XFILL71280x18100 gnd vdd FILL
XBUFX2_insert4 _4454_/Q gnd _2100_/A vdd BUFX2
X_3804_ _4295_/A _3795_/B _3803_/Y gnd _4361_/D vdd OAI21X1
X_3735_ _3902_/A _3733_/B _3734_/Y gnd _3735_/Y vdd OAI21X1
X_2548_ _2547_/Y gnd _2550_/B vdd INVX1
X_3666_ _3817_/A _3699_/B _3665_/Y gnd _4399_/D vdd AOI21X1
X_2617_ _2613_/Y _2616_/Y gnd _2624_/C vdd NAND2X1
X_3597_ _2983_/B _3575_/B gnd _3598_/A vdd NAND2X1
X_4218_ _4343_/Q _4238_/S _4215_/C gnd _4219_/A vdd OAI21X1
X_4149_ _4148_/Y _4147_/Y _4215_/C _4149_/D gnd _4154_/B vdd OAI22X1
X_2479_ _2886_/C gnd _2479_/Y vdd INVX1
X_3520_ _3499_/A _3520_/B _3519_/Y gnd _3520_/Y vdd NAND3X1
X_2333_ _2381_/A _2381_/B gnd _2334_/B vdd AND2X2
X_2402_ _2402_/A _2402_/B _2401_/Y gnd _2403_/B vdd NAND3X1
X_3382_ _3382_/A _3370_/Y _3382_/C gnd _3537_/A vdd NAND3X1
X_3451_ _3445_/Y _3450_/Y gnd _3451_/Y vdd NAND2X1
X_4003_ _4324_/Q _4025_/B _4025_/C gnd _4004_/A vdd OAI21X1
X_2264_ _2264_/A _2263_/Y gnd _3321_/A vdd XNOR2X1
X_2195_ _2818_/A _2184_/B gnd _2195_/Y vdd AND2X2
X_3718_ _3716_/A _3732_/B _3718_/C gnd _3718_/Y vdd OAI21X1
X_3649_ _3649_/Q _4387_/CLK _3574_/Y gnd vdd DFFPOSX1
XSFILL14160x8100 gnd vdd FILL
XSFILL44080x28100 gnd vdd FILL
X_2951_ _2950_/Y _2951_/B gnd _3333_/B vdd NAND2X1
XCLKBUF1_insert11 clock gnd _4389_/CLK vdd CLKBUF1
X_4483_ _4483_/A _4472_/Y _4483_/C gnd _4486_/B vdd OAI21X1
X_2882_ _2812_/C gnd _2882_/Y vdd INVX1
X_4621_ _3515_/B gnd _4621_/Y vdd INVX1
X_4552_ _4582_/Q _4544_/Y _4506_/A gnd _4552_/Y vdd OAI21X1
X_3503_ _3503_/A _3482_/B _3503_/C gnd _3503_/Y vdd OAI21X1
X_3296_ gnd _3348_/B _3348_/C gnd _3296_/Y vdd NAND3X1
X_2316_ _2316_/A _2315_/Y gnd _2316_/Y vdd NOR2X1
X_3365_ gnd gnd _3365_/Y vdd INVX1
X_3434_ _3603_/A _3434_/B gnd _3498_/C vdd NOR2X1
X_2247_ _2235_/Y _2247_/B _2246_/Y gnd _2250_/A vdd OAI21X1
X_2178_ _2177_/Y _2176_/Y gnd _2180_/C vdd NOR2X1
XSFILL44560x24100 gnd vdd FILL
XSFILL59600x46100 gnd vdd FILL
X_3150_ gnd gnd _3150_/Y vdd INVX1
X_2101_ _2101_/A gnd data_out[11] vdd BUFX2
XFILL71280x26100 gnd vdd FILL
X_3081_ gnd gnd _3083_/A vdd INVX1
X_2865_ _2780_/A gnd _2865_/Y vdd INVX1
X_3983_ _4418_/Q _4402_/Q _3974_/B gnd _3986_/D vdd MUX2X1
X_2934_ _2934_/A _3933_/A gnd _2936_/A vdd XNOR2X1
X_4604_ _4605_/A _4166_/A gnd _4604_/Y vdd NAND2X1
X_4466_ _4567_/A _4566_/A gnd _4560_/A vdd NOR2X1
X_4535_ _4533_/Y _4534_/Y _4460_/Y gnd _4535_/Y vdd AOI21X1
X_2796_ _2842_/A _2795_/Y gnd _2797_/B vdd NOR2X1
X_3279_ _3279_/A gnd _3279_/Y vdd INVX1
X_4397_ _4397_/Q _4337_/CLK _4397_/D gnd vdd DFFPOSX1
X_3348_ gnd _3348_/B _3348_/C gnd _3348_/Y vdd NAND3X1
X_3417_ _3417_/A gnd _3417_/Y vdd INVX1
X_2581_ _2100_/A _2639_/C gnd _2581_/Y vdd NAND2X1
X_2650_ _2571_/B _2569_/Y gnd _2652_/A vdd NOR2X1
X_4320_ _4320_/Q _4316_/CLK _3752_/Y gnd vdd DFFPOSX1
X_4251_ _4251_/A _4090_/S _4251_/C gnd _4252_/A vdd OAI21X1
X_4182_ _4182_/A _4180_/Y _4142_/C _4179_/Y gnd _4182_/Y vdd OAI22X1
X_3202_ gnd gnd _3203_/C vdd INVX1
X_3133_ gnd gnd _3133_/Y vdd INVX1
XSFILL30000x28100 gnd vdd FILL
X_3064_ _3059_/Y _3064_/B _3064_/C gnd _3069_/A vdd NAND3X1
XSFILL14480x18100 gnd vdd FILL
X_2848_ _4076_/A _2848_/B gnd _2848_/Y vdd NAND2X1
X_3897_ _4207_/A _3898_/B gnd _3897_/Y vdd NOR2X1
X_3966_ _3966_/A _4188_/B _4199_/C gnd _3966_/Y vdd OAI21X1
X_2917_ _2919_/A _2884_/Y gnd _2920_/C vdd NOR2X1
X_2779_ _2779_/A gnd _2779_/Y vdd INVX1
X_4518_ _4518_/A _4518_/B _4492_/Y gnd _4518_/Y vdd NOR3X1
X_4449_ _4449_/Q _4355_/CLK _4449_/D gnd vdd DFFPOSX1
XSFILL29200x22100 gnd vdd FILL
XBUFX2_insert105 _4456_/Q gnd _2102_/A vdd BUFX2
XBUFX2_insert116 _3646_/Q gnd _4097_/C vdd BUFX2
XBUFX2_insert149 _3876_/Y gnd _3886_/B vdd BUFX2
XBUFX2_insert127 _3423_/Q gnd _3626_/A vdd BUFX2
XBUFX2_insert138 _4451_/Q gnd _2348_/A vdd BUFX2
XSFILL45040x44100 gnd vdd FILL
X_3820_ _4385_/Q _3832_/B gnd _3821_/C vdd NOR2X1
X_3751_ _4320_/Q _3752_/B gnd _3751_/Y vdd NAND2X1
X_3682_ _3500_/Y gnd _3796_/A vdd INVX4
X_2702_ _2699_/C gnd _2724_/C vdd INVX1
X_2564_ _2558_/Y _2564_/B _2561_/Y gnd _2564_/Y vdd NAND3X1
X_4303_ _4303_/Q _4387_/CLK _3851_/Y gnd vdd DFFPOSX1
X_2495_ _2476_/D _2489_/Y _2543_/A gnd _2502_/B vdd AOI21X1
X_2633_ _2348_/A _2596_/Y gnd _2633_/Y vdd NOR2X1
X_4234_ _3803_/A _4056_/B _4223_/S gnd _4234_/Y vdd MUX2X1
X_4096_ _4300_/Q _4213_/B gnd _4098_/B vdd NOR2X1
X_4165_ _4165_/A _4165_/B _4220_/S gnd _4167_/A vdd MUX2X1
X_3116_ _3116_/A _3112_/Y _3116_/C gnd _3121_/A vdd NAND3X1
X_3047_ _3047_/A _3333_/B _3047_/C _3333_/D gnd _3051_/B vdd OAI22X1
X_3949_ _3949_/A _3949_/B _4080_/C _3946_/Y gnd _3954_/B vdd OAI22X1
XSFILL59280x12100 gnd vdd FILL
XSFILL44560x32100 gnd vdd FILL
X_2280_ _2183_/B _2183_/A _2279_/Y gnd _2280_/Y vdd AOI21X1
X_3803_ _3803_/A _3795_/B gnd _3803_/Y vdd NAND2X1
XBUFX2_insert5 _4454_/Q gnd _2324_/A vdd BUFX2
X_3734_ _3740_/A _3732_/B _4376_/Q gnd _3734_/Y vdd OAI21X1
X_3665_ _3950_/B _3699_/B gnd _3665_/Y vdd NOR2X1
X_2616_ _2630_/B _4595_/B _4592_/B _2616_/D gnd _2616_/Y vdd AOI22X1
X_4217_ _4311_/Q _4213_/B gnd _4217_/Y vdd NOR2X1
X_2547_ _2855_/A _2546_/Y gnd _2547_/Y vdd NOR2X1
X_3596_ _3605_/A data_in[12] gnd _3598_/B vdd NAND2X1
X_2478_ _2476_/Y _2488_/A gnd _2478_/Y vdd XNOR2X1
X_4148_ _3970_/A _4097_/B _4215_/C gnd _4148_/Y vdd OAI21X1
X_4079_ _3740_/C _3980_/B gnd _4081_/B vdd NOR2X1
X_2332_ _2381_/A _2381_/B gnd _2332_/Y vdd NOR2X1
X_3381_ _3376_/Y _3381_/B gnd _3382_/C vdd NOR2X1
X_2401_ _2399_/Y _2401_/B _2398_/Y gnd _2401_/Y vdd NOR3X1
X_3450_ _3499_/A _3447_/Y _3450_/C gnd _3450_/Y vdd NAND3X1
X_2263_ _2855_/A _2546_/A gnd _2263_/Y vdd XOR2X1
X_4002_ _4002_/A _4002_/B gnd _4002_/Y vdd NOR2X1
X_2194_ _2190_/Y _2276_/B gnd _2194_/Y vdd XNOR2X1
XSFILL29520x48100 gnd vdd FILL
XSFILL14480x26100 gnd vdd FILL
X_3717_ _3817_/A _3733_/B _3717_/C gnd _4367_/D vdd OAI21X1
X_3648_ _3648_/Q _4337_/CLK _3571_/Y gnd vdd DFFPOSX1
X_3579_ _3568_/A data_in[5] gnd _3580_/B vdd NAND2X1
XSFILL43600x38100 gnd vdd FILL
X_2881_ _2812_/A gnd _2883_/A vdd INVX1
X_4620_ _4593_/A _4618_/Y _4620_/C gnd _4620_/Y vdd OAI21X1
X_2950_ _2983_/B _2950_/B gnd _2950_/Y vdd NOR2X1
XCLKBUF1_insert12 clock gnd _4355_/CLK vdd CLKBUF1
X_3502_ _3502_/A gnd _3503_/C vdd INVX1
X_4482_ _4492_/A gnd _4483_/C vdd INVX2
X_4551_ _4549_/Y _4550_/Y gnd _4551_/Y vdd NOR2X1
X_3433_ _2983_/B gnd _3434_/B vdd INVX1
X_2246_ _2245_/Y gnd _2246_/Y vdd INVX1
X_3295_ _3295_/A _3295_/B _3346_/B gnd _3297_/B vdd NAND3X1
X_2315_ _2314_/A _2314_/B gnd _2315_/Y vdd AND2X2