*SPEF "IEEE 1481.1999"
*DESIGN "map9v3"
*DATE "13:17:21 Wednesday May 13, 2020"
*VENDOR "unknown"
*PROGRAM "qrouter"
*VERSION "unknown"
*DESIGN_FLOW "qflow"
*DIVIDER /
*DELIMITER :
*BUS_DELIMITER <>
*T_UNIT 1 PS
*C_UNIT 1 FF
*R_UNIT 1 OHM
*L_UNIT 1 HENRY

*NAME_MAP
*1 _104_
*2 _130_
*3 _141_
*4 _131_
*5 _132_
*6 _135_
*7 _153_
*8 _156_
*9 _155_
*10 _150_
*11 _147_
*12 _144_
*13 _138_
*14 state[0]
*15 _272_
*16 _240_
*17 _114_
*18 _181_
*19 _192_
*20 _191_
*21 _236_
*22 _205_
*23 _223_
*24 _209_
*25 _233_
*26 _55__bF_buf2
*27 BUFX2_insert11
*28 _272_
*29 _297_
*30 _298_
*31 _280_
*32 _282_
*33 _299_
*34 _283_
*35 _55__bF_buf3
*36 BUFX2_insert10
*37 _293_
*38 _275_
*39 _274_
*40 _288_
*41 _291_
*42 _294_
*43 _292_
*44 _55__bF_buf4
*45 BUFX2_insert9
*46 _278_
*47 _281_
*48 _295_
*49 _279_
*50 _302_
*51 _277_
*52 _285_
*53 clock_bF_buf2
*54 CLKBUF1_insert2
*55 _278_
*56 _293_
*57 _288_
*58 _294_
*59 _291_
*60 _292_
*61 _295_
*62 clock_bF_buf3
*63 CLKBUF1_insert1
*64 _297_
*65 _298_
*66 _280_
*67 _282_
*68 _299_
*69 _283_
*70 _296_
*71 clock_bF_buf4
*72 CLKBUF1_insert0
*73 _285_
*74 _279_
*75 _277_
*76 _302_
*77 _301_
*78 _300_
*79 _284_
*80 _35_
*81 _180_
*82 _189_
*83 _190_
*84 _193_
*85 _221_
*86 _195_
*87 _181_
*88 _200_
*89 _55__bF_buf0
*90 BUFX2_insert13
*91 _276_
*92 _300_
*93 _284_
*94 _296_
*95 _301_
*96 _286_
*97 _55__bF_buf1
*98 BUFX2_insert12
*99 _287_
*100 _304_
*101 _273_
*102 _303_
*103 _289_
*104 _290_
*105 clock_bF_buf0
*106 CLKBUF1_insert4
*107 _287_
*108 _304_
*109 _303_
*110 _289_
*111 _273_
*112 _290_
*113 clock_bF_buf1
*114 CLKBUF1_insert3
*115 _272_
*116 _276_
*117 _281_
*118 _274_
*119 _275_
*120 _286_
*121 state[3]
*122 _275_
*123 _161_
*124 _160_
*125 _115_
*126 _235_
*127 _182_
*128 _187_
*129 _37_
*130 _182_
*131 _185_
*132 _234_
*133 _227_
*134 _216_
*135 _196_
*136 _208_
*137 _90__bF_buf3
*138 BUFX2_insert14
*139 _123_
*140 _228_
*141 _217_
*142 _218_
*143 _130_
*144 _55_
*145 _245_
*146 BUFX2_insert10
*147 BUFX2_insert9
*148 BUFX2_insert13
*149 BUFX2_insert11
*150 BUFX2_insert12
*151 _91__bF_buf1
*152 BUFX2_insert7
*153 _239_
*154 _130_
*155 _175_
*156 _176_
*157 _123_
*158 _91__bF_buf2
*159 BUFX2_insert6
*160 _241_
*161 _172_
*162 _171_
*163 _173_
*164 _170_
*165 _91__bF_buf3
*166 BUFX2_insert5
*167 _169_
*168 _166_
*169 _162_
*170 _168_
*171 _167_
*172 clock
*173 CLKBUF1_insert0
*174 CLKBUF1_insert2
*175 CLKBUF1_insert3
*176 CLKBUF1_insert1
*177 CLKBUF1_insert4
*178 N[3]
*179 _203_
*180 _194_
*181 _193_
*182 _190_
*183 _189_
*184 _90_
*185 _114_
*186 BUFX2_insert15
*187 BUFX2_insert17
*188 BUFX2_insert16
*189 BUFX2_insert14
*190 _90__bF_buf0
*191 BUFX2_insert17
*192 _170_
*193 _172_
*194 _241_
*195 _160_
*196 _90__bF_buf1
*197 BUFX2_insert16
*198 _177_
*199 _178_
*200 _185_
*201 _199_
*202 _90__bF_buf2
*203 BUFX2_insert15
*204 _164_
*205 _162_
*206 _166_
*207 _168_
*208 _91_
*209 _115_
*210 BUFX2_insert7
*211 BUFX2_insert6
*212 BUFX2_insert8
*213 BUFX2_insert5
*214 _91__bF_buf0
*215 BUFX2_insert8
*216 _164_
*217 _163_
*218 _165_
*219 _242_
*220 _110_[2]
*221 _289_
*222 _248_
*223 _197_
*224 _188_
*225 _116_
*226 _92_
*227 _116_
*228 _196_
*229 _118_
*230 _226_
*231 _207_
*232 _110_[4]
*233 _291_
*234 _250_
*235 _208_
*236 _117_
*237 _206_
*238 _110_[6]
*239 _293_
*240 _252_
*241 _225_
*242 _224_
*243 _119_
*244 _110_[0]
*245 _287_
*246 _175_
*247 _176_
*248 _120_
*249 _246_
*250 _113_[0]
*251 _295_
*252 _131_
*253 _264_
*254 _160_
*255 _241_
*256 _113_[3]
*257 _298_
*258 _140_
*259 _158_
*260 _166_
*261 _267_
*262 _113_[4]
*263 _299_
*264 _268_
*265 _168_
*266 _143_
*267 _158_
*268 _113_[5]
*269 _300_
*270 _146_
*271 _170_
*272 _269_
*273 _157_
*274 N[1]
*275 _202_
*276 _180_
*277 _179_
*278 _174_
*279 _41_
*280 _187_
*281 _224_
*282 _214_
*283 _188_
*284 _197_
*285 N[5]
*286 _200_
*287 _220_
*288 _211_
*289 _201_
*290 _110_[3]
*291 _290_
*292 _249_
*293 _197_
*294 _116_
*295 _110_[5]
*296 _292_
*297 _251_
*298 _215_
*299 _117_
*300 _94_
*301 _118_
*302 _224_
*303 _214_
*304 _122_
*305 _110_[7]
*306 _294_
*307 _253_
*308 _235_
*309 _119_
*310 _110_[1]
*311 _288_
*312 _183_
*313 _247_
*314 _120_
*315 _96_
*316 _120_
*317 _187_
*318 _182_
*319 _121_
*320 state[2]
*321 _274_
*322 _238_
*323 _130_
*324 _276_
*325 _113_[1]
*326 _296_
*327 _162_
*328 _134_
*329 _265_
*330 _113_[2]
*331 _297_
*332 _266_
*333 _137_
*334 _164_
*335 _113_[6]
*336 _301_
*337 _149_
*338 _270_
*339 _172_
*340 _113_[7]
*341 _302_
*342 _271_
*343 _157_
*344 _152_
*345 N[2]
*346 _202_
*347 _180_
*348 _179_
*349 N[4]
*350 _203_
*351 _194_
*352 _193_
*353 _47_
*354 _194_
*355 _200_
*356 _221_
*357 _195_
*358 N[6]
*359 _211_
*360 _220_
*361 _210_
*362 _64_
*363 _212_
*364 _230_
*365 _213_
*366 _223_
*367 N[7]
*368 _219_
*369 _223_
*370 _230_
*371 _93_
*372 _117_
*373 _118_
*374 _226_
*375 _95_
*376 _119_
*377 _121_
*378 _244_
*379 _98_
*380 _122_
*381 _123_
*382 _235_
*383 state[4]
*384 _276_
*385 _124_
*386 _239_
*387 state[1]
*388 _273_
*389 _125_
*390 _243_
*391 startbuf[0]
*392 _303_
*393 _304_
*394 _126_
*395 _102_
*396 _127_
*397 _128_
*398 _243_
*399 _112_[1]
*400 _278_
*401 _256_
*402 _129_
*403 _112_[2]
*404 _279_
*405 _257_
*406 _133_
*407 _107_
*408 _134_
*409 _135_
*410 _242_
*411 _112_[3]
*412 _280_
*413 _258_
*414 _136_
*415 _109_
*416 _137_
*417 _163_
*418 _138_
*419 _112_[4]
*420 _281_
*421 _259_
*422 _139_
*423 _9_
*424 _140_
*425 _165_
*426 _141_
*427 _112_[5]
*428 _282_
*429 _260_
*430 _142_
*431 _11_
*432 _143_
*433 _144_
*434 _167_
*435 _112_[6]
*436 _283_
*437 _261_
*438 _145_
*439 _13_
*440 _146_
*441 _169_
*442 _147_
*443 _112_[7]
*444 _284_
*445 _262_
*446 _148_
*447 _15_
*448 _149_
*449 _150_
*450 _171_
*451 _112_[8]
*452 _285_
*453 _263_
*454 _151_
*455 _17_
*456 _152_
*457 _153_
*458 _173_
*459 _112_[0]
*460 _277_
*461 _255_
*462 _154_
*463 _31_
*464 _175_
*465 _184_
*466 _177_
*467 _49_
*468 _196_
*469 _198_
*470 _208_
*471 _54_
*472 _202_
*473 _212_
*474 _204_
*475 _56_
*476 _203_
*477 _212_
*478 _204_
*479 _57_
*480 _204_
*481 _210_
*482 _205_
*483 _60_
*484 _207_
*485 _208_
*486 _216_
*487 _66_
*488 _214_
*489 _217_
*490 _244_
*491 _70_
*492 _219_
*493 _232_
*494 _222_
*495 _72_
*496 _221_
*497 _232_
*498 _222_
*499 _76_
*500 _225_
*501 _234_
*502 _227_
*503 _77_
*504 _226_
*505 _227_
*506 _234_
*507 N[8]
*508 _230_
*509 _231_
*510 _111_
*511 _286_
*512 _237_
*513 _254_
*514 _97_
*515 _121_
*516 _122_
*517 _6_
*518 _123_
*519 _275_
*520 _99_
*521 _124_
*522 _128_
*523 _100_
*524 _125_
*525 _128_
*526 _101_
*527 _126_
*528 _127_
*529 startbuf[1]
*530 _304_
*531 _127_
*532 _7_
*533 _128_
*534 _273_
*535 _103_
*536 _129_
*537 _132_
*538 _105_
*539 _131_
*540 _132_
*541 _2_[1]
*542 _132_
*543 _278_
*544 _106_
*545 _133_
*546 _135_
*547 _2_[2]
*548 _135_
*549 _279_
*550 _108_
*551 _136_
*552 _138_
*553 _2_[3]
*554 _138_
*555 _280_
*556 _8_
*557 _139_
*558 _141_
*559 _2_[4]
*560 _141_
*561 _281_
*562 _10_
*563 _142_
*564 _144_
*565 _2_[5]
*566 _144_
*567 _282_
*568 _12_
*569 _145_
*570 _147_
*571 _2_[6]
*572 _147_
*573 _283_
*574 _14_
*575 _148_
*576 _150_
*577 _2_[7]
*578 _150_
*579 _284_
*580 _16_
*581 _151_
*582 _153_
*583 _2_[8]
*584 _153_
*585 _285_
*586 _18_
*587 _154_
*588 _156_
*589 N[0]
*590 _155_
*591 _19_
*592 _155_
*593 _156_
*594 _2_[0]
*595 _156_
*596 _277_
*597 _20_
*598 _157_
*599 _159_
*600 _21_
*601 _158_
*602 _159_
*603 _22_
*604 _159_
*605 _161_
*606 _23_
*607 _160_
*608 _161_
*609 _3_[0]
*610 _161_
*611 _295_
*612 _24_
*613 _162_
*614 _163_
*615 _3_[2]
*616 _163_
*617 _297_
*618 _25_
*619 _164_
*620 _165_
*621 _3_[3]
*622 _165_
*623 _298_
*624 _26_
*625 _166_
*626 _167_
*627 _3_[4]
*628 _167_
*629 _299_
*630 _27_
*631 _168_
*632 _169_
*633 _3_[5]
*634 _169_
*635 _300_
*636 _28_
*637 _170_
*638 _171_
*639 _3_[6]
*640 _171_
*641 _301_
*642 _29_
*643 _172_
*644 _173_
*645 _3_[7]
*646 _173_
*647 _302_
*648 _30_
*649 _174_
*650 _178_
*651 _32_
*652 _176_
*653 _177_
*654 _33_
*655 _177_
*656 _178_
*657 _0_[0]
*658 _178_
*659 _287_
*660 _34_
*661 _179_
*662 _181_
*663 _36_
*664 _181_
*665 _186_
*666 _38_
*667 _183_
*668 _184_
*669 _39_
*670 _184_
*671 _185_
*672 _40_
*673 _185_
*674 _186_
*675 _0_[1]
*676 _186_
*677 _288_
*678 _42_
*679 _188_
*680 _192_
*681 _43_
*682 _189_
*683 _191_
*684 _44_
*685 _190_
*686 _191_
*687 _45_
*688 _191_
*689 _192_
*690 _0_[2]
*691 _192_
*692 _289_
*693 _46_
*694 _193_
*695 _195_
*696 _48_
*697 _195_
*698 _199_
*699 _50_
*700 _197_
*701 _198_
*702 _51_
*703 _198_
*704 _199_
*705 _0_[3]
*706 _199_
*707 _290_
*708 _52_
*709 _200_
*710 _205_
*711 _53_
*712 _201_
*713 _204_
*714 _58_
*715 _205_
*716 _209_
*717 _59_
*718 _206_
*719 _207_
*720 _61_
*721 _208_
*722 _209_
*723 _0_[4]
*724 _209_
*725 _291_
*726 _62_
*727 _210_
*728 _213_
*729 _63_
*730 _211_
*731 _212_
*732 _65_
*733 _213_
*734 _218_
*735 _67_
*736 _215_
*737 _216_
*738 _68_
*739 _216_
*740 _217_
*741 _69_
*742 _217_
*743 _218_
*744 _0_[5]
*745 _218_
*746 _292_
*747 _71_
*748 _220_
*749 _221_
*750 _73_
*751 _222_
*752 _229_
*753 _74_
*754 _223_
*755 _229_
*756 _75_
*757 _224_
*758 _228_
*759 _78_
*760 _227_
*761 _228_
*762 _79_
*763 _228_
*764 _229_
*765 _0_[6]
*766 _229_
*767 _293_
*768 _80_
*769 _230_
*770 _233_
*771 _81_
*772 _231_
*773 _232_
*774 _82_
*775 _232_
*776 _233_
*777 _83_
*778 _233_
*779 _236_
*780 _84_
*781 _234_
*782 _235_
*783 _85_
*784 _235_
*785 _236_
*786 _0_[7]
*787 _236_
*788 _294_
*789 _86_
*790 _237_
*791 _240_
*792 _87_
*793 _238_
*794 _239_
*795 _88_
*796 _239_
*797 _240_
*798 _1_
*799 _240_
*800 _286_
*801 _89_
*802 _241_
*803 _242_
*804 _3_[1]
*805 _242_
*806 _296_
*807 _4_
*808 _243_
*809 _272_
*810 _5_
*811 _244_
*812 _274_
*813 reset
*814 _245_
*815 counter[0]
*816 _246_
*817 counter[1]
*818 _247_
*819 counter[2]
*820 _248_
*821 counter[3]
*822 _249_
*823 counter[4]
*824 _250_
*825 counter[5]
*826 _251_
*827 counter[6]
*828 _252_
*829 counter[7]
*830 _253_
*831 done
*832 _254_
*833 dp[0]
*834 _255_
*835 dp[1]
*836 _256_
*837 dp[2]
*838 _257_
*839 dp[3]
*840 _258_
*841 dp[4]
*842 _259_
*843 dp[5]
*844 _260_
*845 dp[6]
*846 _261_
*847 dp[7]
*848 _262_
*849 dp[8]
*850 _263_
*851 sr[0]
*852 _264_
*853 sr[1]
*854 _265_
*855 sr[2]
*856 _266_
*857 sr[3]
*858 _267_
*859 sr[4]
*860 _268_
*861 sr[5]
*862 _269_
*863 sr[6]
*864 _270_
*865 sr[7]
*866 _271_
*867 start
*868 _303_

*PORTS
*172 I
*178 I
*274 I
*285 I
*345 I
*349 I
*358 I
*367 I
*507 I
*589 I
*813 I
*815 O
*817 O
*819 O
*821 O
*823 O
*825 O
*827 O
*829 O
*831 O
*833 O
*835 O
*837 O
*839 O
*841 O
*843 O
*845 O
*847 O
*849 O
*851 O
*853 O
*855 O
*857 O
*859 O
*861 O
*863 O
*865 O
*867 I

*D_NET *1 0.0145531
*CONN
*I *2:Y O *D _130
*I *3:S I *L 0
*I *4:B I *L 0
*I *5:B I *L 0
*I *6:S I *L 0
*I *7:S I *L 0
*I *8:B I *L 0
*I *9:B I *L 0
*I *10:S I *L 0
*I *11:S I *L 0
*I *12:S I *L 0
*I *13:S I *L 0
*CAP
1 1_1 0.0018495
2 1_2 0.0001314
3 1_3 0.0005208
4 1_4 0.0005353
5 1_5 0.0002472
6 1_6 0.00031668
7 1_7 0.00129696
8 1_8 0.0001314
9 1_9 0.00104694
10 1_10 0.00080324
11 1_11 0.0012237
12 1_12 0.0001314
13 1_13 0.00040216
14 1_14 0.00140664
15 1_15 0.00031668
16 1_16 0.0009548
17 1_17 0.0002472
18 1_18 0.0007668
19 1_19 0.0003942
20 1_20 0.00183012
*RES
1 *2:Y 1_1 8.26667
2 1_1 1_2 0.533333
3 1_2 *3:S 0
4 1_1 1_3 2.8
5 1_3 1_4 2.83333
6 1_4 1_5 1.06667
7 1_5 *4:B 0
8 1_4 1_6 1.38667
9 1_6 *5:B 0
10 1_3 1_7 5.97333
11 1_7 1_8 0.533333
12 1_8 *6:S 0
13 1_7 1_9 4.42667
14 1_9 1_10 3.09333
15 1_10 *7:S 0
16 1_9 1_11 5.6
17 1_11 1_12 0.533333
18 1_12 *8:B 0
19 1_12 1_13 1.17333
20 1_13 *9:B 0
21 1_11 1_14 5.76
22 1_14 1_15 1.38667
23 1_15 *10:S 0
24 1_14 1_16 5.13333
25 1_16 1_17 1.06667
26 1_17 *11:S 0
27 1_16 1_18 4.03333
28 1_18 1_19 1.6
29 1_19 *12:S 0
30 1_18 1_20 8.21333
31 1_20 *13:S 0
*END
*D_NET *14 0.0103877
*CONN
*I *15:Q O *D _272
*I *16:C I *L 0
*I *17:A I *L 0
*I *18:C I *L 0
*I *19:B I *L 0
*I *20:A I *L 0
*I *21:A I *L 0
*I *22:A I *L 0
*I *23:C I *L 0
*I *24:B I *L 0
*I *25:A I *L 0
*CAP
1 14_1 0.0008337
2 14_2 0.0002904
3 14_3 0.00074112
4 14_4 0.0005178
5 14_5 0.00101904
6 14_6 0.0005913
7 14_7 6.57e-05
8 14_8 0.00125586
9 14_9 0.0002628
10 14_10 0.00051378
11 14_11 0.00041688
12 14_12 0.0009855
13 14_13 0.00097272
14 14_14 0.0002628
15 14_15 6.57e-05
16 14_16 0.000657
17 14_17 6.57e-05
18 14_18 0.00037548
19 14_19 0.0004944
*RES
1 *15:Q 14_1 4.13333
2 14_1 14_2 1.28
3 14_2 *16:C 0
4 14_1 14_3 3.41333
5 14_3 14_4 2.13333
6 14_4 *17:A 0
7 14_3 14_5 4.69333
8 14_5 14_6 2.4
9 14_6 14_7 0.266667
10 14_7 *18:C 0
11 14_7 14_8 5.17333
12 14_8 14_9 1.06667
13 14_9 *19:B 0
14 14_8 14_10 2.18667
15 14_10 *20:A 0
16 14_5 14_11 1.92
17 14_11 14_12 4
18 14_12 *21:A 0
19 14_11 14_13 4.48
20 14_13 14_14 1.06667
21 14_14 14_15 0.266667
22 14_15 *22:A 0
23 14_15 14_16 2.66667
24 14_16 14_17 0.266667
25 14_17 *23:C 0
26 14_17 14_18 1.6
27 14_18 *24:B 0
28 14_13 14_19 2.13333
29 14_19 *25:A 0
*END
*D_NET *26 0.00699958
*CONN
*I *27:Y O *D BUFX2
*I *28:S I *L 0
*I *29:R I *L 0
*I *30:R I *L 0
*I *31:R I *L 0
*I *32:R I *L 0
*I *33:R I *L 0
*I *34:R I *L 0
*CAP
1 26_1 0.00053382
2 26_2 6.57e-05
3 26_3 0.00064518
4 26_4 0.0003285
5 26_5 0.00123648
6 26_6 0.00100392
7 26_7 0.00073108
8 26_8 0.00042936
9 26_9 0.0007884
10 26_10 6.57e-05
11 26_11 0.00117144
*RES
1 *27:Y 26_1 2.29333
2 26_1 26_2 0.266667
3 26_2 *28:S 0
4 26_2 26_3 2.72
5 26_3 26_4 1.33333
6 26_4 *29:R 0
7 26_3 26_5 5.12
8 26_5 *30:R 0
9 26_5 26_6 4.48
10 26_6 *31:R 0
11 26_6 26_7 2.98667
12 26_7 26_8 1.92
13 26_8 *32:R 0
14 26_7 26_9 3.2
15 26_9 26_10 0.266667
16 26_10 *33:R 0
17 26_10 26_11 4.90667
18 26_11 *34:R 0
*END
*D_NET *35 0.00502198
*CONN
*I *36:Y O *D BUFX2
*I *37:R I *L 0
*I *38:R I *L 0
*I *39:R I *L 0
*I *40:R I *L 0
*I *41:R I *L 0
*I *42:R I *L 0
*I *43:R I *L 0
*CAP
1 35_1 0.0004599
2 35_2 6.57e-05
3 35_3 0.00099306
4 35_4 6.57e-05
5 35_5 0.00086166
6 35_6 0.00084624
7 35_7 0.0006046
8 35_8 6.57e-05
9 35_9 0.000657
10 35_10 6.57e-05
11 35_11 0.00033672
*RES
1 *36:Y 35_1 1.86667
2 35_1 35_2 0.266667
3 35_2 *37:R 0
4 35_2 35_3 4.10667
5 35_3 35_4 0.266667
6 35_4 *38:R 0
7 35_4 35_5 3.57333
8 35_5 *39:R 0
9 35_2 35_6 3.84
10 35_6 *40:R 0
11 35_6 35_7 2.34667
12 35_7 35_8 0.266667
13 35_8 *41:R 0
14 35_8 35_9 2.66667
15 35_9 35_10 0.266667
16 35_10 *42:R 0
17 35_10 35_11 1.49333
18 35_11 *43:R 0
*END
*D_NET *44 0.00700806
*CONN
*I *45:Y O *D BUFX2
*I *46:R I *L 0
*I *47:R I *L 0
*I *48:R I *L 0
*I *49:R I *L 0
*I *50:R I *L 0
*I *51:R I *L 0
*I *52:R I *L 0
*CAP
1 44_1 6.57e-05
2 44_2 0.00060708
3 44_3 0.0005178
4 44_4 0.00105876
5 44_5 0.00071418
6 44_6 0.0001971
7 44_7 0.00098454
8 44_8 0.0001314
9 44_9 0.0007884
10 44_10 0.00107388
11 44_11 0.00086922
*RES
1 *45:Y 44_1 0.266667
2 44_1 44_2 2.66667
3 44_2 *46:R 0
4 44_1 44_3 2.13333
5 44_3 44_4 4.37333
6 44_4 *47:R 0
7 44_3 44_5 3.25333
8 44_5 44_6 0.8
9 44_6 *48:R 0
10 44_6 44_7 4.42667
11 44_7 44_8 0.533333
12 44_8 *49:R 0
13 44_8 44_9 3.2
14 44_9 *50:R 0
15 44_7 44_10 4.58667
16 44_10 *51:R 0
17 44_5 44_11 3.68
18 44_11 *52:R 0
*END
*D_NET *53 0.00743652
*CONN
*I *54:Y O *D CLKBUF1
*I *55:CLK I *L 0
*I *56:CLK I *L 0
*I *57:CLK I *L 0
*I *58:CLK I *L 0
*I *59:CLK I *L 0
*I *60:CLK I *L 0
*I *61:CLK I *L 0
*CAP
1 53_1 6.57e-05
2 53_2 0.0003285
3 53_3 5.79e-05
4 53_4 0.00077586
5 53_5 0.0002472
6 53_6 0.00130854
7 53_7 0.0001815
8 53_8 0.0001314
9 53_9 0.00085362
10 53_10 0.00113484
11 53_11 0.0001314
12 53_12 0.00060642
13 53_13 0.00161364
*RES
1 *54:Y 53_1 0.266667
2 53_1 53_2 1.33333
3 53_2 *55:CLK 0
4 53_1 53_3 0.266667
5 53_3 53_4 3.57333
6 53_4 53_5 1.06667
7 53_5 *56:CLK 0
8 53_4 53_6 6.02667
9 53_6 53_7 0.8
10 53_7 53_8 0.533333
11 53_8 *57:CLK 0
12 53_7 53_9 3.68
13 53_9 *58:CLK 0
14 53_6 53_10 5.22667
15 53_10 53_11 0.533333
16 53_11 *59:CLK 0
17 53_10 53_12 2.61333
18 53_12 *60:CLK 0
19 53_3 53_13 7.36
20 53_13 *61:CLK 0
*END
*D_NET *62 0.00944508
*CONN
*I *63:Y O *D CLKBUF1
*I *64:CLK I *L 0
*I *65:CLK I *L 0
*I *66:CLK I *L 0
*I *67:CLK I *L 0
*I *68:CLK I *L 0
*I *69:CLK I *L 0
*I *70:CLK I *L 0
*CAP
1 62_1 0.00137544
2 62_2 6.57e-05
3 62_3 0.00130218
4 62_4 6.57e-05
5 62_5 0.00140118
6 62_6 0.0002472
7 62_7 0.00088008
8 62_8 0.00075672
9 62_9 0.0010512
10 62_10 6.57e-05
11 62_11 0.0003942
12 62_12 0.00061776
13 62_13 0.00122202
*RES
1 *63:Y 62_1 5.76
2 62_1 62_2 0.266667
3 62_2 *64:CLK 0
4 62_2 62_3 5.38667
5 62_3 62_4 0.266667
6 62_4 *65:CLK 0
7 62_4 62_5 6.45333
8 62_5 62_6 1.06667
9 62_6 *66:CLK 0
10 62_5 62_7 4.05333
11 62_7 62_8 3.41333
12 62_8 *67:CLK 0
13 62_7 62_9 4.26667
14 62_9 62_10 0.266667
15 62_10 *68:CLK 0
16 62_10 62_11 1.6
17 62_11 62_12 2.77333
18 62_12 *69:CLK 0
19 62_11 62_13 4.96
20 62_13 *70:CLK 0
*END
*D_NET *71 0.00921644
*CONN
*I *72:Y O *D CLKBUF1
*I *73:CLK I *L 0
*I *74:CLK I *L 0
*I *75:CLK I *L 0
*I *76:CLK I *L 0
*I *77:CLK I *L 0
*I *78:CLK I *L 0
*I *79:CLK I *L 0
*CAP
1 71_1 0.00107756
2 71_2 6.57e-05
3 71_3 0.00157536
4 71_4 0.0001314
5 71_5 0.0004632
6 71_6 0.00046746
7 71_7 0.00128772
8 71_8 6.57e-05
9 71_9 0.00128988
10 71_10 6.57e-05
11 71_11 0.00139482
12 71_12 6.57e-05
13 71_13 0.00126624
*RES
1 *72:Y 71_1 4.58667
2 71_1 71_2 0.266667
3 71_2 *73:CLK 0
4 71_2 71_3 7.04
5 71_3 71_4 0.533333
6 71_4 *74:CLK 0
7 71_3 71_5 2.13333
8 71_5 71_6 1.97333
9 71_6 *75:CLK 0
10 71_5 71_7 5.22667
11 71_7 71_8 0.266667
12 71_8 *76:CLK 0
13 71_8 71_9 5.65333
14 71_9 71_10 0.266667
15 71_10 *77:CLK 0
16 71_10 71_11 5.81333
17 71_11 71_12 0.266667
18 71_12 *78:CLK 0
19 71_12 71_13 5.76
20 71_13 *79:CLK 0
*END
*D_NET *80 0.00542412
*CONN
*I *81:Y O *D _180
*I *82:A I *L 0
*I *83:B I *L 0
*I *84:A I *L 0
*I *85:B I *L 0
*I *86:A I *L 0
*I *87:A I *L 0
*I *88:B I *L 0
*CAP
1 80_1 6.57e-05
2 80_2 0.00055986
3 80_3 0.0002472
4 80_4 0.00058704
5 80_5 0.0004521
6 80_6 0.00052512
7 80_7 0.00090798
8 80_8 0.0002628
9 80_9 6.57e-05
10 80_10 0.00041688
11 80_11 0.00010512
12 80_12 0.00047568
13 80_13 0.00075294
*RES
1 *81:Y 80_1 0.266667
2 80_1 80_2 2.50667
3 80_2 80_3 1.06667
4 80_3 *82:A 0
5 80_2 80_4 2.56
6 80_4 *83:B 0
7 80_1 80_5 1.86667
8 80_5 80_6 2.34667
9 80_6 *84:A 0
10 80_5 80_7 3.78667
11 80_7 80_8 1.06667
12 80_8 80_9 0.266667
13 80_9 *85:B 0
14 80_9 80_10 1.92
15 80_10 80_11 0.426667
16 80_11 *86:A 0
17 80_10 80_12 2.13333
18 80_12 *87:A 0
19 80_7 80_13 3.36
20 80_13 *88:B 0
*END
*D_NET *89 0.00487054
*CONN
*I *90:Y O *D BUFX2
*I *91:R I *L 0
*I *92:R I *L 0
*I *93:R I *L 0
*I *94:R I *L 0
*I *95:R I *L 0
*I *96:R I *L 0
*CAP
1 89_1 0.0005913
2 89_2 0.00010512
3 89_3 0.0014208
4 89_4 0.00040684
5 89_5 0.00024408
6 89_6 0.000657
7 89_7 0.0007884
8 89_8 0.000657
*RES
1 *90:Y 89_1 2.4
2 89_1 89_2 0.426667
3 89_2 *91:R 0
4 89_2 89_3 6.4
5 89_3 *92:R 0
6 89_3 89_4 1.49333
7 89_4 89_5 1.06667
8 89_5 *93:R 0
9 89_5 89_6 2.66667
10 89_6 *94:R 0
11 89_4 89_7 3.2
12 89_7 *95:R 0
13 89_1 89_8 2.66667
14 89_8 *96:R 0
*END
*D_NET *97 0.00552556
*CONN
*I *98:Y O *D BUFX2
*I *99:R I *L 0
*I *100:R I *L 0
*I *101:R I *L 0
*I *102:R I *L 0
*I *103:R I *L 0
*I *104:R I *L 0
*CAP
1 97_1 0.00069642
2 97_2 6.57e-05
3 97_3 0.00086166
4 97_4 6.57e-05
5 97_5 0.0010788
6 97_6 6.57e-05
7 97_7 0.0013797
8 97_8 0.00074356
9 97_9 0.00056832
*RES
1 *98:Y 97_1 2.82667
2 97_1 97_2 0.266667
3 97_2 *99:R 0
4 97_2 97_3 3.57333
5 97_3 97_4 0.266667
6 97_4 *100:R 0
7 97_4 97_5 4.48
8 97_5 *101:R 0
9 97_2 97_6 0.266667
10 97_6 97_7 5.6
11 97_7 *102:R 0
12 97_7 97_8 2.98667
13 97_8 *103:R 0
14 97_6 97_9 2.56
15 97_9 *104:R 0
*END
*D_NET *105 0.0077655
*CONN
*I *106:Y O *D CLKBUF1
*I *107:CLK I *L 0
*I *108:CLK I *L 0
*I *109:CLK I *L 0
*I *110:CLK I *L 0
*I *111:CLK I *L 0
*I *112:CLK I *L 0
*CAP
1 105_1 0.00079146
2 105_2 0.0002472
3 105_3 6.57e-05
4 105_4 0.00078036
5 105_5 6.57e-05
6 105_6 0.0011091
7 105_7 0.00047478
8 105_8 0.0002472
9 105_9 0.0014052
10 105_10 0.00108096
11 105_11 0.00149784
*RES
1 *106:Y 105_1 3.57333
2 105_1 105_2 1.06667
3 105_2 105_3 0.266667
4 105_3 *107:CLK 0
5 105_3 105_4 3.30667
6 105_4 105_5 0.266667
7 105_5 *108:CLK 0
8 105_5 105_6 4.53333
9 105_6 105_7 2.18667
10 105_7 105_8 1.06667
11 105_8 *109:CLK 0
12 105_7 105_9 6.4
13 105_9 *110:CLK 0
14 105_6 105_10 4.90667
15 105_10 *111:CLK 0
16 105_1 105_11 6.82667
17 105_11 *112:CLK 0
*END
*D_NET *113 0.00564354
*CONN
*I *114:Y O *D CLKBUF1
*I *115:CLK I *L 0
*I *116:CLK I *L 0
*I *117:CLK I *L 0
*I *118:CLK I *L 0
*I *119:CLK I *L 0
*I *120:CLK I *L 0
*CAP
1 113_1 0.00090798
2 113_2 0.000255
3 113_3 0.00038238
4 113_4 6.57e-05
5 113_5 0.0013062
6 113_6 0.00038238
7 113_7 0.00088008
8 113_8 0.0002628
9 113_9 0.00033606
10 113_10 0.00086496
*RES
1 *114:Y 113_1 3.78667
2 113_1 *115:CLK 0
3 113_1 113_2 1.06667
4 113_2 113_3 1.65333
5 113_3 113_4 0.266667
6 113_4 *116:CLK 0
7 113_4 113_5 5.33333
8 113_5 113_6 1.65333
9 113_6 *117:CLK 0
10 113_5 113_7 4.05333
11 113_7 113_8 1.06667
12 113_8 *118:CLK 0
13 113_7 113_9 1.44
14 113_9 *119:CLK 0
15 113_2 113_10 3.84
16 113_10 *120:CLK 0
*END
*D_NET *121 0.0055358
*CONN
*I *122:Q O *D _275
*I *123:A I *L 0
*I *124:A I *L 0
*I *125:A I *L 0
*I *126:A I *L 0
*I *127:B I *L 0
*I *128:A I *L 0
*CAP
1 121_1 6.57e-05
2 121_2 0.00143262
3 121_3 0.00042936
4 121_4 0.0001893
5 121_5 0.00014624
6 121_6 0.00134064
7 121_7 6.57e-05
8 121_8 0.00144444
9 121_9 0.00010512
10 121_10 0.00031668
*RES
1 *122:Q 121_1 0.266667
2 121_1 121_2 6.34667
3 121_2 121_3 1.92
4 121_3 *123:A 0
5 121_2 121_4 0.8
6 121_4 *124:A 0
7 121_4 121_5 0.426667
8 121_5 *125:A 0
9 121_1 121_6 5.97333
10 121_6 121_7 0.266667
11 121_7 *126:A 0
12 121_7 121_8 6.29333
13 121_8 121_9 0.426667
14 121_9 *127:B 0
15 121_8 121_10 1.38667
16 121_10 *128:A 0
*END
*D_NET *129 0.0047409
*CONN
*I *130:Y O *D _182
*I *131:B I *L 0
*I *132:B I *L 0
*I *133:A I *L 0
*I *134:B I *L 0
*I *135:B I *L 0
*I *136:B I *L 0
*CAP
1 129_1 0.0004599
2 129_2 0.00067184
3 129_3 6.57e-05
4 129_4 0.00033672
5 129_5 6.57e-05
6 129_6 0.00109656
7 129_7 6.57e-05
8 129_8 0.0001971
9 129_9 0.0009862
10 129_10 0.00079548
*RES
1 *130:Y 129_1 1.86667
2 129_1 129_2 2.56
3 129_2 *131:B 0
4 129_1 129_3 0.266667
5 129_3 *132:B 0
6 129_3 129_4 1.49333
7 129_4 129_5 0.266667
8 129_5 *133:A 0
9 129_5 129_6 4.90667
10 129_6 129_7 0.266667
11 129_7 129_8 0.8
12 129_8 *134:B 0
13 129_7 129_9 4.86667
14 129_9 *135:B 0
15 129_6 129_10 3.52
16 129_10 *136:B 0
*END
*D_NET *137 0.0043647
*CONN
*I *138:Y O *D BUFX2
*I *139:C I *L 0
*I *140:C I *L 0
*I *141:C I *L 0
*I *142:A I *L 0
*I *143:B I *L 0
*CAP
1 137_1 6.57e-05
2 137_2 0.0003942
3 137_3 0.00023652
4 137_4 0.00125064
5 137_5 0.0001314
6 137_6 0.00085692
7 137_7 0.0001971
8 137_8 0.0005601
9 137_9 0.00067212
*RES
1 *138:Y 137_1 0.266667
2 137_1 137_2 1.6
3 137_2 137_3 0.96
4 137_3 *139:C 0
5 137_2 137_4 5.76
6 137_4 137_5 0.533333
7 137_5 *140:C 0
8 137_4 137_6 3.94667
9 137_6 137_7 0.8
10 137_7 *141:C 0
11 137_6 137_8 2.4
12 137_8 *142:A 0
13 137_1 137_9 2.88
14 137_9 *143:B 0
*END
*D_NET *144 0.00812898
*CONN
*I *145:Y O *D _245
*I *146:A I *L 0
*I *147:A I *L 0
*I *148:A I *L 0
*I *149:A I *L 0
*I *150:A I *L 0
*CAP
1 144_1 0.0004287
2 144_2 0.0001314
3 144_3 0.001158
4 144_4 0.00027036
5 144_5 0.0019632
6 144_6 6.57e-05
7 144_7 0.0015741
8 144_8 0.00071856
9 144_9 0.00181896
*RES
1 *145:Y 144_1 1.86667
2 144_1 144_2 0.533333
3 144_2 *146:A 0
4 144_1 144_3 5.33333
5 144_3 144_4 1.17333
6 144_4 *147:A 0
7 144_3 144_5 8
8 144_5 144_6 0.266667
9 144_6 *148:A 0
10 144_6 144_7 7.5
11 144_7 144_8 3.65333
12 144_8 *149:A 0
13 144_7 144_9 8.32
14 144_9 *150:A 0
*END
*D_NET *151 0.00412856
*CONN
*I *152:Y O *D BUFX2
*I *153:B I *L 0
*I *154:C I *L 0
*I *155:B I *L 0
*I *156:A I *L 0
*I *157:B I *L 0
*CAP
1 151_1 0.00168312
2 151_2 0.0001971
3 151_3 0.00032424
4 151_4 0.00010512
5 151_5 0.00032424
6 151_6 0.0001971
7 151_7 9.264e-05
8 151_8 0.00040176
9 151_9 0.00080324
*RES
1 *152:Y 151_1 7.68
2 151_1 151_2 0.8
3 151_2 *153:B 0
4 151_1 151_3 1.49333
5 151_3 151_4 0.426667
6 151_4 *154:C 0
7 151_3 151_5 1.49333
8 151_5 151_6 0.8
9 151_6 *155:B 0
10 151_5 151_7 0.426667
11 151_7 151_8 1.70667
12 151_8 *156:A 0
13 151_7 151_9 3.09333
14 151_9 *157:B 0
*END
*D_NET *158 0.0034833
*CONN
*I *159:Y O *D BUFX2
*I *160:A I *L 0
*I *161:A I *L 0
*I *162:A I *L 0
*I *163:A I *L 0
*I *164:A I *L 0
*CAP
1 158_1 0.00125954
2 158_2 0.0003656
3 158_3 0.00014624
4 158_4 5.79e-05
5 158_5 0.00025098
6 158_6 0.0001314
7 158_7 0.00079596
8 158_8 0.00047568
*RES
1 *159:Y 158_1 5.17333
2 158_1 158_2 1.06667
3 158_2 *160:A 0
4 158_1 158_3 0.426667
5 158_3 *161:A 0
6 158_1 158_4 0.266667
7 158_4 158_5 1.12
8 158_5 158_6 0.533333
9 158_6 *162:A 0
10 158_5 158_7 3.30667
11 158_7 *163:A 0
12 158_4 158_8 2.13333
13 158_8 *164:A 0
*END
*D_NET *165 0.00276212
*CONN
*I *166:Y O *D BUFX2
*I *167:A I *L 0
*I *168:A I *L 0
*I *169:A I *L 0
*I *170:A I *L 0
*I *171:A I *L 0
*CAP
1 165_1 0.00056766
2 165_2 0.00019776
3 165_3 0.0007227
4 165_4 0.0001971
5 165_5 0.00014624
6 165_6 0.00037056
7 165_7 0.0001971
8 165_8 0.000363
*RES
1 *166:Y 165_1 2.50667
2 165_1 165_2 0.853333
3 165_2 *167:A 0
4 165_1 165_3 2.93333
5 165_3 165_4 0.8
6 165_4 *168:A 0
7 165_4 165_5 0.426667
8 165_5 *169:A 0
9 165_3 165_6 1.70667
10 165_6 165_7 0.8
11 165_7 *170:A 0
12 165_6 165_8 1.6
13 165_8 *171:A 0
*END
*D_NET *172 0.00659458
*CONN
*P *172 O
*I *173:A I *L 0
*I *174:A I *L 0
*I *175:A I *L 0
*I *176:A I *L 0
*I *177:A I *L 0
*CAP
1 172_1 0.00076212
2 172_2 6.57e-05
3 172_3 0.00103512
4 172_4 0.0002472
5 172_5 0.0021411
6 172_6 0.00103512
7 172_7 0.00014624
8 172_8 0.00116198
*RES
1 *172 172_1 3.09333
2 172_1 172_2 0.266667
3 172_2 *173:A 0
4 172_2 172_3 4.48
5 172_3 172_4 1.06667
6 172_4 *174:A 0
7 172_3 172_5 11.4667
8 172_5 172_6 4.48
9 172_6 *175:A 0
10 172_6 172_7 0.426667
11 172_7 *176:A 0
12 172_5 172_8 4.85333
13 172_8 *177:A 0
*END
*D_NET *178 0.00331106
*CONN
*P *178 O
*I *179:A I *L 0
*I *180:A I *L 0
*I *181:B I *L 0
*I *182:A I *L 0
*I *183:B I *L 0
*CAP
1 178_1 0.0004287
2 178_2 6.57e-05
3 178_3 0.00058704
4 178_4 0.0001971
5 178_5 0.00027792
6 178_6 0.0003285
7 178_7 0.00093066
8 178_8 0.00024408
9 178_9 0.00025136
*RES
1 *178 178_1 1.86667
2 178_1 178_2 0.266667
3 178_2 *179:A 0
4 178_2 178_3 2.56
5 178_3 178_4 0.8
6 178_4 *180:A 0
7 178_3 178_5 1.28
8 178_5 178_6 1.33333
9 178_6 *181:B 0
10 178_5 178_7 4.10667
11 178_7 178_8 1.06667
12 178_8 *182:A 0
13 178_7 178_9 0.853333
14 178_9 *183:B 0
*END
*D_NET *184 0.00397854
*CONN
*I *185:Y O *D _114
*I *186:A I *L 0
*I *187:A I *L 0
*I *188:A I *L 0
*I *189:A I *L 0
*CAP
1 184_1 6.57e-05
2 184_2 0.00010512
3 184_3 0.00194544
4 184_4 0.0002628
5 184_5 0.0004599
6 184_6 0.00067968
7 184_7 0.0004599
*RES
1 *185:Y 184_1 0.266667
2 184_1 184_2 0.426667
3 184_2 184_3 8.96
4 184_3 184_4 1.06667
5 184_4 *186:A 0
6 184_3 184_5 1.86667
7 184_5 *187:A 0
8 184_2 184_6 2.98667
9 184_6 *188:A 0
10 184_1 184_7 1.86667
11 184_7 *189:A 0
*END
*D_NET *190 0.00223128
*CONN
*I *191:Y O *D BUFX2
*I *192:C I *L 0
*I *193:C I *L 0
*I *194:C I *L 0
*I *195:C I *L 0
*CAP
1 190_1 0.0005178
2 190_2 9.264e-05
3 190_3 0.00010512
4 190_4 0.00037056
5 190_5 0.00010512
6 190_6 0.00079596
7 190_7 0.00024408
*RES
1 *191:Y 190_1 2.13333
2 190_1 190_2 0.426667
3 190_2 190_3 0.426667
4 190_3 *192:C 0
5 190_2 190_4 1.70667
6 190_4 190_5 0.426667
7 190_5 *193:C 0
8 190_4 190_6 3.30667
9 190_6 *194:C 0
10 190_1 190_7 1.06667
11 190_7 *195:C 0
*END
*D_NET *196 0.00257958
*CONN
*I *197:Y O *D BUFX2
*I *198:C I *L 0
*I *199:A I *L 0
*I *200:C I *L 0
*I *201:S I *L 0
*CAP
1 196_1 0.0004218
2 196_2 6.57e-05
3 196_3 0.00052134
4 196_4 0.00010512
5 196_5 6.57e-05
6 196_6 0.00076212
7 196_7 0.0006378
*RES
1 *197:Y 196_1 1.81333
2 196_1 196_2 0.266667
3 196_2 *198:C 0
4 196_2 196_3 2.29333
5 196_3 196_4 0.426667
6 196_4 196_5 0.266667
7 196_5 *199:A 0
8 196_5 196_6 3.09333
9 196_6 *200:C 0
10 196_3 196_7 2.88
11 196_7 *201:S 0
*END
*D_NET *202 0.00222182
*CONN
*I *203:Y O *D BUFX2
*I *204:C I *L 0
*I *205:C I *L 0
*I *206:C I *L 0
*I *207:C I *L 0
*CAP
1 202_1 0.0005178
2 202_2 0.00019776
3 202_3 0.00066096
4 202_4 6.57e-05
5 202_5 0.00063336
6 202_6 0.00014624
*RES
1 *203:Y 202_1 2.13333
2 202_1 202_2 0.853333
3 202_2 *204:C 0
4 202_1 202_3 2.98667
5 202_3 202_4 0.266667
6 202_4 *205:C 0
7 202_4 202_5 2.77333
8 202_5 *206:C 0
9 202_5 202_6 0.426667
10 202_6 *207:C 0
*END
*D_NET *208 0.00251166
*CONN
*I *209:Y O *D _115
*I *210:A I *L 0
*I *211:A I *L 0
*I *212:A I *L 0
*I *213:A I *L 0
*CAP
1 208_1 0.00080352
2 208_2 0.0002472
3 208_3 0.0002895
4 208_4 6.57e-05
5 208_5 0.000657
6 208_6 6.57e-05
7 208_7 0.00038304
*RES
1 *209:Y 208_1 3.41333
2 208_1 208_2 1.06667
3 208_2 *210:A 0
4 208_1 208_3 1.33333
5 208_3 208_4 0.266667
6 208_4 *211:A 0
7 208_4 208_5 2.66667
8 208_5 208_6 0.266667
9 208_6 *212:A 0
10 208_6 208_7 1.70667
11 208_7 *213:A 0
*END
*D_NET *214 0.00362628
*CONN
*I *215:Y O *D BUFX2
*I *216:A I *L 0
*I *217:A I *L 0
*I *218:A I *L 0
*I *219:A I *L 0
*CAP
1 214_1 6.57e-05
2 214_2 0.0003942
3 214_3 0.0002628
4 214_4 0.00021936
5 214_5 0.00102756
6 214_6 0.00075294
7 214_7 0.00090372
*RES
1 *215:Y 214_1 0.266667
2 214_1 214_2 1.6
3 214_2 214_3 1.06667
4 214_3 214_4 0.64
5 214_4 *216:A 0
6 214_3 214_5 4.37333
7 214_5 *217:A 0
8 214_2 214_6 3.36
9 214_6 *218:A 0
10 214_1 214_7 3.94667
11 214_7 *219:A 0
*END
*D_NET *220 0.00361086
*CONN
*I *221:Q O *D _289
*I *222:A I *L 0
*I *223:B I *L 0
*I *224:B I *L 0
*I *225:B I *L 0
*CAP
1 220_1 0.00021936
2 220_2 0.0021046
3 220_3 0.00037056
4 220_4 0.00010512
5 220_5 0.00050196
6 220_6 0.00030926
*RES
1 *221:Q 220_1 0.64
2 220_1 *222:A 0
3 220_1 220_2 10.9267
4 220_2 220_3 1.70667
5 220_3 220_4 0.426667
6 220_4 *223:B 0
7 220_3 220_5 2.24
8 220_5 *224:B 0
9 220_2 220_6 1.12
10 220_6 *225:B 0
*END
*D_NET *226 0.00316374
*CONN
*I *227:Y O *D _116
*I *228:A I *L 0
*I *229:A I *L 0
*I *230:A I *L 0
*I *231:A I *L 0
*CAP
1 226_1 0.0005913
2 226_2 0.00021936
3 226_3 0.00091554
4 226_4 6.57e-05
5 226_5 0.00024408
6 226_6 0.00112776
*RES
1 *227:Y 226_1 2.4
2 226_1 226_2 0.64
3 226_2 *228:A 0
4 226_1 226_3 3.89333
5 226_3 226_4 0.266667
6 226_4 *229:A 0
7 226_4 226_5 1.06667
8 226_5 *230:A 0
9 226_1 226_6 4.90667
10 226_6 *231:A 0
*END
*D_NET *232 0.00456316
*CONN
*I *233:Q O *D _291
*I *234:A I *L 0
*I *235:D I *L 0
*I *236:B I *L 0
*I *237:A I *L 0
*CAP
1 232_1 0.0005256
2 232_2 0.00024408
3 232_3 9.264e-05
4 232_4 0.00018528