*SPEF "IEEE 1481.1999"
*DESIGN "map9v3"
*DATE "17:49:28 Wednesday April 29, 2020"
*VENDOR "unknown"
*PROGRAM "qrouter"
*VERSION "unknown"
*DESIGN_FLOW "qflow"
*DIVIDER /
*DELIMITER :
*BUS_DELIMITER <>
*T_UNIT 1 PS
*C_UNIT 1 FF
*R_UNIT 1 OHM
*L_UNIT 1 HENRY

*NAME_MAP
*1 state[0]
*2 _286_
*3 _254_
*4 _195_
*5 _206_
*6 _220_
*7 _224_
*8 _207_
*9 _121_
*10 _244_
*11 _248_
*12 _250_
*13 _238_
*14 _111_
*15 _137_
*16 _154_
*17 _163_
*18 _162_
*19 _151_
*20 _145_
*21 _157_
*22 _139_
*23 _160_
*24 _138_
*25 _148_
*26 _142_
*27 _56__bF_buf2
*28 BUFX2_insert11
*29 _312_
*30 _309_
*31 _295_
*32 _316_
*33 _314_
*34 _292_
*35 _299_
*36 _56__bF_buf3
*37 BUFX2_insert10
*38 _318_
*39 _289_
*40 _301_
*41 _286_
*42 _300_
*43 _287_
*44 _317_
*45 _56__bF_buf4
*46 BUFX2_insert9
*47 _308_
*48 _288_
*49 _303_
*50 _302_
*51 _305_
*52 _307_
*53 _306_
*54 clock_bF_buf2
*55 CLKBUF1_insert2
*56 _312_
*57 _316_
*58 _292_
*59 _299_
*60 _314_
*61 _309_
*62 _295_
*63 clock_bF_buf3
*64 CLKBUF1_insert1
*65 _293_
*66 _297_
*67 _291_
*68 _317_
*69 _290_
*70 _304_
*71 _313_
*72 clock_bF_buf4
*73 CLKBUF1_insert0
*74 _306_
*75 _288_
*76 _308_
*77 _303_
*78 _305_
*79 _307_
*80 _302_
*81 _56__bF_buf0
*82 BUFX2_insert13
*83 _311_
*84 _298_
*85 _310_
*86 _315_
*87 _294_
*88 _296_
*89 _56__bF_buf1
*90 BUFX2_insert12
*91 _290_
*92 _293_
*93 _297_
*94 _291_
*95 _304_
*96 _313_
*97 clock_bF_buf0
*98 CLKBUF1_insert4
*99 _287_
*100 _300_
*101 _286_
*102 _301_
*103 _289_
*104 _318_
*105 clock_bF_buf1
*106 CLKBUF1_insert3
*107 _311_
*108 _294_
*109 _298_
*110 _296_
*111 _310_
*112 _315_
*113 state[3]
*114 _289_
*115 _196_
*116 _201_
*117 _173_
*118 _174_
*119 _122_
*120 _249_
*121 _98__bF_buf1
*122 BUFX2_insert16
*123 _181_
*124 _182_
*125 _179_
*126 _176_
*127 _175_
*128 _98__bF_buf2
*129 BUFX2_insert15
*130 _256_
*131 _253_
*132 _130_
*133 _188_
*134 _189_
*135 _98__bF_buf3
*136 BUFX2_insert14
*137 _177_
*138 _180_
*139 _137_
*140 _255_
*141 _178_
*142 _56_
*143 _259_
*144 BUFX2_insert9
*145 BUFX2_insert11
*146 BUFX2_insert12
*147 BUFX2_insert10
*148 BUFX2_insert13
*149 _97__bF_buf3
*150 BUFX2_insert5
*151 _177_
*152 _181_
*153 _183_
*154 _185_
*155 _175_
*156 clock
*157 CLKBUF1_insert4
*158 CLKBUF1_insert1
*159 CLKBUF1_insert3
*160 CLKBUF1_insert2
*161 CLKBUF1_insert0
*162 _117_[2]
*163 _303_
*164 _123_
*165 _212_
*166 _213_
*167 _202_
*168 _262_
*169 _120_[3]
*170 _312_
*171 _147_
*172 _170_
*173 _179_
*174 _166_
*175 _281_
*176 _120_[4]
*177 _313_
*178 _165_
*179 _170_
*180 _181_
*181 _150_
*182 _282_
*183 _120_[5]
*184 _314_
*185 _283_
*186 _183_
*187 _164_
*188 _169_
*189 _153_
*190 _41_
*191 _193_
*192 _194_
*193 _210_
*194 _219_
*195 _237_
*196 _204_
*197 _44_
*198 _196_
*199 _230_
*200 _222_
*201 _223_
*202 _241_
*203 _199_
*204 _48_
*205 _201_
*206 _228_
*207 _214_
*208 _213_
*209 _202_
*210 _242_
*211 _57_
*212 _210_
*213 _225_
*214 _220_
*215 _234_
*216 _227_
*217 _211_
*218 N[5]
*219 _236_
*220 _226_
*221 _225_
*222 _220_
*223 _217_
*224 _98_
*225 _122_
*226 BUFX2_insert15
*227 BUFX2_insert14
*228 BUFX2_insert16
*229 BUFX2_insert17
*230 _98__bF_buf0
*231 BUFX2_insert17
*232 _183_
*233 _184_
*234 _185_
*235 _186_
*236 _97_
*237 _121_
*238 BUFX2_insert6
*239 BUFX2_insert5
*240 BUFX2_insert7
*241 BUFX2_insert8
*242 _97__bF_buf0
*243 BUFX2_insert8
*244 _130_
*245 _190_
*246 _199_
*247 _191_
*248 _97__bF_buf1
*249 BUFX2_insert7
*250 _173_
*251 _255_
*252 _137_
*253 _179_
*254 _97__bF_buf2
*255 BUFX2_insert6
*256 _232_
*257 _231_
*258 _216_
*259 _215_
*260 _117_[3]
*261 _304_
*262 _123_
*263 _212_
*264 _213_
*265 _263_
*266 _117_[4]
*267 _305_
*268 _264_
*269 _223_
*270 _221_
*271 _124_
*272 _117_[6]
*273 _307_
*274 _266_
*275 _242_
*276 _239_
*277 _126_
*278 _117_[0]
*279 _301_
*280 _189_
*281 _188_
*282 _127_
*283 _260_
*284 _120_[0]
*285 _309_
*286 _278_
*287 _138_
*288 _173_
*289 _255_
*290 _120_[7]
*291 _316_
*292 _168_
*293 _159_
*294 _164_
*295 _285_
*296 N[3]
*297 _218_
*298 _203_
*299 _205_
*300 _208_
*301 _99_
*302 _123_
*303 _240_
*304 _222_
*305 _125_
*306 _117_[5]
*307 _306_
*308 _229_
*309 _124_
*310 _265_
*311 _101_
*312 _125_
*313 _228_
*314 _129_
*315 _242_
*316 _117_[7]
*317 _308_
*318 _267_
*319 _126_
*320 _249_
*321 _117_[1]
*322 _302_
*323 _127_
*324 _197_
*325 _261_
*326 _103_
*327 _127_
*328 _201_
*329 _196_
*330 _128_
*331 state[2]
*332 _288_
*333 _290_
*334 _252_
*335 _137_
*336 _120_[1]
*337 _310_
*338 _175_
*339 _141_
*340 _279_
*341 _120_[2]
*342 _311_
*343 _280_
*344 _144_
*345 _177_
*346 _9_
*347 _147_
*348 _148_
*349 _178_
*350 _165_
*351 _11_
*352 _150_
*353 _151_
*354 _166_
*355 _180_
*356 _13_
*357 _153_
*358 _182_
*359 _154_
*360 _168_
*361 _120_[6]
*362 _315_
*363 _185_
*364 _284_
*365 _156_
*366 _17_
*367 _159_
*368 _160_
*369 _186_
*370 _169_
*371 N[1]
*372 _192_
*373 _187_
*374 _193_
*375 _42_
*376 _194_
*377 _205_
*378 _208_
*379 _195_
*380 N[4]
*381 _208_
*382 _218_
*383 _209_
*384 N[6]
*385 _226_
*386 _225_
*387 _236_
*388 N[7]
*389 _245_
*390 _233_
*391 _238_
*392 _100_
*393 _124_
*394 _125_
*395 _240_
*396 _102_
*397 _126_
*398 _258_
*399 _128_
*400 _105_
*401 _129_
*402 _130_
*403 _249_
*404 state[4]
*405 _290_
*406 _253_
*407 _131_
*408 state[1]
*409 _287_
*410 _257_
*411 _132_
*412 startbuf[0]
*413 _317_
*414 _318_
*415 _133_
*416 _109_
*417 _134_
*418 _135_
*419 _257_
*420 _119_[1]
*421 _292_
*422 _270_
*423 _136_
*424 _119_[2]
*425 _293_
*426 _140_
*427 _271_
*428 _114_
*429 _141_
*430 _142_
*431 _256_
*432 _119_[3]
*433 _294_
*434 _272_
*435 _143_
*436 _116_
*437 _144_
*438 _176_
*439 _145_
*440 _119_[4]
*441 _295_
*442 _273_
*443 _146_
*444 _119_[5]
*445 _296_
*446 _274_
*447 _149_
*448 _119_[6]
*449 _297_
*450 _275_
*451 _152_
*452 _119_[7]
*453 _298_
*454 _276_
*455 _155_
*456 _15_
*457 _156_
*458 _157_
*459 _184_
*460 _119_[8]
*461 _299_
*462 _158_
*463 _277_
*464 _119_[0]
*465 _291_
*466 _269_
*467 _161_
*468 _37_
*469 _188_
*470 _190_
*471 _198_
*472 N[2]
*473 _192_
*474 _193_
*475 _50_
*476 _203_
*477 _210_
*478 _204_
*479 _59_
*480 _212_
*481 _221_
*482 _214_
*483 _64_
*484 _218_
*485 _219_
*486 _237_
*487 _67_
*488 _221_
*489 _223_
*490 _230_
*491 _71_
*492 _226_
*493 _227_
*494 _234_
*495 _73_
*496 _228_
*497 _231_
*498 _258_
*499 _77_
*500 _233_
*501 _247_
*502 _235_
*503 _78_
*504 _234_
*505 _235_
*506 _247_
*507 _81_
*508 _237_
*509 _238_
*510 _245_
*511 _85_
*512 _241_
*513 _243_
*514 _249_
*515 N[8]
*516 _245_
*517 _246_
*518 _118_
*519 _300_
*520 _268_
*521 _251_
*522 _104_
*523 _128_
*524 _129_
*525 _6_
*526 _130_
*527 _289_
*528 _106_
*529 _131_
*530 _135_
*531 _107_
*532 _132_
*533 _135_
*534 _108_
*535 _133_
*536 _134_
*537 startbuf[1]
*538 _318_
*539 _134_
*540 _7_
*541 _135_
*542 _287_
*543 _110_
*544 _136_
*545 _139_
*546 _112_
*547 _138_
*548 _139_
*549 _2_[1]
*550 _139_
*551 _292_
*552 _113_
*553 _140_
*554 _142_
*555 _2_[2]
*556 _142_
*557 _293_
*558 _115_
*559 _143_
*560 _145_
*561 _2_[3]
*562 _145_
*563 _294_
*564 _8_
*565 _146_
*566 _148_
*567 _2_[4]
*568 _148_
*569 _295_
*570 _10_
*571 _149_
*572 _151_
*573 _2_[5]
*574 _151_
*575 _296_
*576 _12_
*577 _152_
*578 _154_
*579 _2_[6]
*580 _154_
*581 _297_
*582 _14_
*583 _155_
*584 _157_
*585 _2_[7]
*586 _157_
*587 _298_
*588 _16_
*589 _158_
*590 _160_
*591 _2_[8]
*592 _160_
*593 _299_
*594 _18_
*595 _161_
*596 _163_
*597 N[0]
*598 _162_
*599 _19_
*600 _162_
*601 _163_
*602 _2_[0]
*603 _163_
*604 _291_
*605 _20_
*606 _164_
*607 _167_
*608 _21_
*609 _165_
*610 _167_
*611 _22_
*612 _166_
*613 _167_
*614 _23_
*615 _167_
*616 _172_
*617 _24_
*618 _168_
*619 _171_
*620 _25_
*621 _169_
*622 _171_
*623 _26_
*624 _170_
*625 _171_
*626 _27_
*627 _171_
*628 _172_
*629 _28_
*630 _172_
*631 _174_
*632 _29_
*633 _173_
*634 _174_
*635 _3_[0]
*636 _174_
*637 _309_
*638 _30_
*639 _175_
*640 _176_
*641 _3_[2]
*642 _176_
*643 _311_
*644 _31_
*645 _177_
*646 _178_
*647 _3_[3]
*648 _178_
*649 _312_
*650 _32_
*651 _179_
*652 _180_
*653 _3_[4]
*654 _180_
*655 _313_
*656 _33_
*657 _181_
*658 _182_
*659 _3_[5]
*660 _182_
*661 _314_
*662 _34_
*663 _183_
*664 _184_
*665 _3_[6]
*666 _184_
*667 _315_
*668 _35_
*669 _185_
*670 _186_
*671 _3_[7]
*672 _186_
*673 _316_
*674 _36_
*675 _187_
*676 _191_
*677 _38_
*678 _189_
*679 _190_
*680 _39_
*681 _190_
*682 _191_
*683 _0_[0]
*684 _191_
*685 _301_
*686 _40_
*687 _192_
*688 _195_
*689 _43_
*690 _195_
*691 _200_
*692 _45_
*693 _197_
*694 _198_
*695 _46_
*696 _198_
*697 _199_
*698 _47_
*699 _199_
*700 _200_
*701 _0_[1]
*702 _200_
*703 _302_
*704 _49_
*705 _202_
*706 _207_
*707 _51_
*708 _204_
*709 _206_
*710 _52_
*711 _205_
*712 _206_
*713 _53_
*714 _206_
*715 _207_
*716 _0_[2]
*717 _207_
*718 _303_
*719 _54_
*720 _208_
*721 _211_
*722 _55_
*723 _209_
*724 _210_
*725 _58_
*726 _211_
*727 _216_
*728 _60_
*729 _213_
*730 _214_
*731 _61_
*732 _214_
*733 _215_
*734 _62_
*735 _215_
*736 _216_
*737 _0_[3]
*738 _216_
*739 _304_
*740 _63_
*741 _217_
*742 _219_
*743 _65_
*744 _219_
*745 _224_
*746 _66_
*747 _220_
*748 _224_
*749 _68_
*750 _222_
*751 _223_
*752 _69_
*753 _223_
*754 _224_
*755 _0_[4]
*756 _224_
*757 _305_
*758 _70_
*759 _225_
*760 _227_
*761 _72_
*762 _227_
*763 _232_
*764 _74_
*765 _229_
*766 _230_
*767 _75_
*768 _230_
*769 _231_
*770 _76_
*771 _231_
*772 _232_
*773 _0_[5]
*774 _232_
*775 _306_
*776 _79_
*777 _235_
*778 _244_
*779 _80_
*780 _236_
*781 _237_
*782 _82_
*783 _238_
*784 _244_
*785 _83_
*786 _239_
*787 _241_
*788 _84_
*789 _240_
*790 _241_
*791 _86_
*792 _242_
*793 _243_
*794 _87_
*795 _243_
*796 _244_
*797 _0_[6]
*798 _244_
*799 _307_
*800 _88_
*801 _245_
*802 _248_
*803 _89_
*804 _246_
*805 _247_
*806 _90_
*807 _247_
*808 _248_
*809 _91_
*810 _248_
*811 _250_
*812 _92_
*813 _249_
*814 _250_
*815 _0_[7]
*816 _250_
*817 _308_
*818 _93_
*819 _251_
*820 _254_
*821 _94_
*822 _252_
*823 _253_
*824 _95_
*825 _253_
*826 _254_
*827 _1_
*828 _254_
*829 _300_
*830 _96_
*831 _255_
*832 _256_
*833 _3_[1]
*834 _256_
*835 _310_
*836 _4_
*837 _257_
*838 _286_
*839 _5_
*840 _258_
*841 _288_
*842 reset
*843 _259_
*844 counter[0]
*845 _260_
*846 counter[1]
*847 _261_
*848 counter[2]
*849 _262_
*850 counter[3]
*851 _263_
*852 counter[4]
*853 _264_
*854 counter[5]
*855 _265_
*856 counter[6]
*857 _266_
*858 counter[7]
*859 _267_
*860 done
*861 _268_
*862 dp[0]
*863 _269_
*864 dp[1]
*865 _270_
*866 dp[2]
*867 _271_
*868 dp[3]
*869 _272_
*870 dp[4]
*871 _273_
*872 dp[5]
*873 _274_
*874 dp[6]
*875 _275_
*876 dp[7]
*877 _276_
*878 dp[8]
*879 _277_
*880 sr[0]
*881 _278_
*882 sr[1]
*883 _279_
*884 sr[2]
*885 _280_
*886 sr[3]
*887 _281_
*888 sr[4]
*889 _282_
*890 sr[5]
*891 _283_
*892 sr[6]
*893 _284_
*894 sr[7]
*895 _285_
*896 start
*897 _317_

*PORTS
*156 I
*218 I
*296 I
*371 I
*380 I
*384 I
*388 I
*472 I
*515 I
*597 I
*842 I
*844 O
*846 O
*848 O
*850 O
*852 O
*854 O
*856 O
*858 O
*860 O
*862 O
*864 O
*866 O
*868 O
*870 O
*872 O
*874 O
*876 O
*878 O
*880 O
*882 O
*884 O
*886 O
*888 O
*890 O
*892 O
*894 O
*896 I

*D_NET *1 0.00288456
*CONN
*I *2:Q O *D _286
*I *3:C I *L 0
*I *4:C I *L 0
*I *5:A I *L 0
*I *6:C I *L 0
*I *7:C I *L 0
*I *8:A I *L 0
*I *9:A I *L 0
*I *10:C I *L 0
*I *11:A I *L 0
*I *12:A I *L 0
*I *13:C I *L 0
*CAP
1 1_1 0.0001356
2 1_2 2.04e-05
3 1_3 0.00048216
4 1_4 0.00022368
5 1_5 0.000102
6 1_6 2.04e-05
7 1_7 0.00037944
8 1_8 0.00013584
9 1_9 3.36e-05
10 1_10 8.16e-05
11 1_11 4.704e-05
12 1_12 0.0001104
13 1_13 0
14 1_14 0.00023904
15 1_15 0.00039336
16 1_16 6.12e-05
17 1_17 2.04e-05
18 1_18 0.00021624
19 1_19 6.12e-05
20 1_20 8.064e-05
21 1_21 4.032e-05
*RES
1 *2:Q 1_1 2.1
2 1_1 1_2 0.233333
3 1_2 *3:C 0
4 1_2 1_3 6.39333
5 1_3 1_4 3.54667
6 1_4 *4:C 0
7 1_3 1_5 1.16667
8 1_5 1_6 0.233333
9 1_6 *5:A 0
10 1_6 1_7 4.34
11 1_7 1_8 1.77333
12 1_8 *6:C 0
13 1_7 1_9 0.933333
14 1_9 1_10 0.933333
15 1_10 *7:C 0
16 1_9 1_11 1.30667
17 1_11 1_12 1.4
18 1_12 1_13 0
19 1_13 *8:A 0
20 1_13 1_14 5.41333
21 1_14 *9:A 0
22 1_11 1_15 5.92667
23 1_15 1_16 0.7
24 1_16 1_17 0.233333
25 1_17 *10:C 0
26 1_17 1_18 2.47333
27 1_18 1_19 0.7
28 1_19 *11:A 0
29 1_18 1_20 2.24
30 1_20 *12:A 0
31 1_15 1_21 1.12
32 1_21 *13:C 0
*END
*D_NET *14 0.00395064
*CONN
*I *15:Y O *D _137
*I *16:S I *L 0
*I *17:B I *L 0
*I *18:B I *L 0
*I *19:S I *L 0
*I *20:S I *L 0
*I *21:S I *L 0
*I *22:B I *L 0
*I *23:S I *L 0
*I *24:B I *L 0
*I *25:S I *L 0
*I *26:S I *L 0
*CAP
1 14_1 0.000486
2 14_2 0.0001836
3 14_3 2.04e-05
4 14_4 0.00021696
5 14_5 0.0001224
6 14_6 2.688e-05
7 14_7 0.000102
8 14_8 0.00027072
9 14_9 2.04e-05
10 14_10 4.032e-05
11 14_11 5.76e-05
12 14_12 0.00061008
13 14_13 2.04e-05
14 14_14 0.00088944
15 14_15 0.0002412
16 14_16 0.00015456
17 14_17 0
18 14_18 2.688e-05
19 14_19 0
20 14_20 0.00037968
21 14_21 8.112e-05
*RES
1 *15:Y 14_1 5.27333
2 14_1 14_2 2.1
3 14_2 14_3 0.233333
4 14_3 *16:S 0
5 14_3 14_4 3.36
6 14_4 14_5 1.4
7 14_5 *17:B 0
8 14_4 14_6 0.746667
9 14_6 14_7 1.16667
10 14_7 *18:B 0
11 14_6 14_8 4.85333
12 14_8 14_9 0.233333
13 14_9 *19:S 0
14 14_9 14_10 1.12
15 14_10 14_11 0.373333
16 14_11 *20:S 0
17 14_10 14_12 9.61333
18 14_12 14_13 0.233333
19 14_13 *21:S 0
20 14_13 14_14 10.1733
21 14_14 14_15 2.47333
22 14_15 *22:B 0
23 14_14 14_16 4.29333
24 14_16 14_17 0
25 14_17 *23:S 0
26 14_16 14_18 0.746667
27 14_18 14_19 0
28 14_19 *24:B 0
29 14_18 14_20 4.76
30 14_20 *25:S 0
31 14_1 14_21 1.58667
32 14_21 *26:S 0
*END
*D_NET *27 0.00184032
*CONN
*I *28:Y O *D BUFX2
*I *29:R I *L 0
*I *30:R I *L 0
*I *31:R I *L 0
*I *32:R I *L 0
*I *33:R I *L 0
*I *34:R I *L 0
*I *35:R I *L 0
*CAP
1 27_1 0.0001932
2 27_2 2.016e-05
3 27_3 0.0001428
4 27_4 0.00018288
5 27_5 2.04e-05
6 27_6 0.00025104
7 27_7 0.00012096
8 27_8 4.032e-05
9 27_9 0.0001428
10 27_10 2.04e-05
11 27_11 0.00022416
12 27_12 0.00014256
13 27_13 0.00033864
*RES
1 *28:Y 27_1 1.63333
2 27_1 27_2 0.56
3 27_2 27_3 1.63333
4 27_3 *29:R 0
5 27_2 27_4 3.08
6 27_4 27_5 0.233333
7 27_5 *30:R 0
8 27_5 27_6 3.64
9 27_6 *31:R 0
10 27_1 27_7 3.36
11 27_7 27_8 1.12
12 27_8 27_9 1.63333
13 27_9 27_10 0.233333
14 27_10 *32:R 0
15 27_10 27_11 2.89333
16 27_11 *33:R 0
17 27_8 27_12 1.96
18 27_12 *34:R 0
19 27_7 27_13 3.87333
20 27_13 *35:R 0
*END
*D_NET *36 0.00130344
*CONN
*I *37:Y O *D BUFX2
*I *38:R I *L 0
*I *39:R I *L 0
*I *40:R I *L 0
*I *41:S I *L 0
*I *42:R I *L 0
*I *43:R I *L 0
*I *44:R I *L 0
*CAP
1 36_1 5.424e-05
2 36_2 2.016e-05
3 36_3 0.00024432
4 36_4 8.736e-05
5 36_5 0
6 36_6 0.00031464
7 36_7 0.0002448
8 36_8 3.264e-05
9 36_9 6.048e-05
10 36_10 0.0002448
*RES
1 *37:Y 36_1 0.84
2 36_1 36_2 0.56
3 36_2 *38:R 0
4 36_2 36_3 3.45333
5 36_3 *39:R 0
6 36_3 36_4 2.42667
7 36_4 36_5 0
8 36_5 *40:R 0
9 36_5 36_6 3.31333
10 36_6 *41:S 0
11 36_6 36_7 2.8
12 36_7 36_8 0.373333
13 36_8 *42:R 0
14 36_7 36_9 1.68
15 36_9 *43:R 0
16 36_1 36_10 2.8
17 36_10 *44:R 0
*END
*D_NET *45 0.00205632
*CONN
*I *46:Y O *D BUFX2
*I *47:R I *L 0
*I *48:R I *L 0
*I *49:R I *L 0
*I *50:R I *L 0
*I *51:R I *L 0
*I *52:R I *L 0
*I *53:R I *L 0
*CAP
1 45_1 6.768e-05
2 45_2 0.000204
3 45_3 2.04e-05
4 45_4 0.00054072
5 45_5 2.04e-05
6 45_6 0.0004284
7 45_7 0.0002448
8 45_8 2.04e-05
9 45_9 0.00022416
10 45_10 0.00028536
*RES
1 *46:Y 45_1 1.21333
2 45_1 *47:R 0
3 45_1 45_2 2.33333
4 45_2 45_3 0.233333
5 45_3 *48:R 0
6 45_3 45_4 10.6867
7 45_4 45_5 0.233333
8 45_5 *49:R 0
9 45_5 45_6 4.9
10 45_6 *50:R 0
11 45_5 45_7 2.8
12 45_7 45_8 0.233333
13 45_8 *51:R 0
14 45_8 45_9 2.89333
15 45_9 *52:R 0
16 45_3 45_10 3.59333
17 45_10 *53:R 0
*END
*D_NET *54 0.00191544
*CONN
*I *55:Y O *D CLKBUF1
*I *56:CLK I *L 0
*I *57:CLK I *L 0
*I *58:CLK I *L 0
*I *59:CLK I *L 0
*I *60:CLK I *L 0
*I *61:CLK I *L 0
*I *62:CLK I *L 0
*CAP
1 54_1 0.00016896
2 54_2 5.376e-05
3 54_3 4.08e-05
4 54_4 0.00027576
5 54_5 4.08e-05
6 54_6 2.04e-05
7 54_7 0.00037944
8 54_8 2.04e-05
9 54_9 0.00020328
10 54_10 0.00012216
11 54_11 0.00039984
12 54_12 2.04e-05
13 54_13 0.00016944
*RES
1 *55:Y 54_1 3.36
2 54_1 54_2 1.49333
3 54_2 54_3 0.466667
4 54_3 *56:CLK 0
5 54_2 54_4 7.32667
6 54_4 54_5 0.466667
7 54_5 54_6 0.233333
8 54_6 *57:CLK 0
9 54_6 54_7 4.34
10 54_7 54_8 0.233333
11 54_8 *58:CLK 0
12 54_8 54_9 3.31333
13 54_9 *59:CLK 0
14 54_4 54_10 1.72667
15 54_10 *60:CLK 0
16 54_1 54_11 4.57333
17 54_11 54_12 0.233333
18 54_12 *61:CLK 0
19 54_12 54_13 2.70667
20 54_13 *62:CLK 0
*END
*D_NET *63 0.00194256
*CONN
*I *64:Y O *D CLKBUF1
*I *65:CLK I *L 0
*I *66:CLK I *L 0
*I *67:CLK I *L 0
*I *68:CLK I *L 0
*I *69:CLK I *L 0
*I *70:CLK I *L 0
*I *71:CLK I *L 0
*CAP
1 63_1 0.00012144
2 63_2 0
3 63_3 8.088e-05
4 63_4 0.0001224
5 63_5 2.04e-05
6 63_6 0.000192
7 63_7 0.00020352
8 63_8 0.00027744
9 63_9 0.0002124
10 63_10 0.00016968
11 63_11 2.04e-05
12 63_12 0.00025032
13 63_13 0.00027168
*RES
1 *64:Y 63_1 2.70667
2 63_1 63_2 0
3 63_2 *65:CLK 0
4 63_1 63_3 1.91333
5 63_3 63_4 1.4
6 63_4 63_5 0.233333
7 63_5 *66:CLK 0
8 63_5 63_6 2.33333
9 63_6 63_7 2.98667
10 63_7 *67:CLK 0
11 63_6 63_8 5.04
12 63_8 *68:CLK 0
13 63_3 63_9 2.56667
14 63_9 63_10 2.38
15 63_10 63_11 0.233333
16 63_11 *69:CLK 0
17 63_11 63_12 4.62
18 63_12 *70:CLK 0
19 63_9 63_13 3.54667
20 63_13 *71:CLK 0
*END
*D_NET *72 0.00220008
*CONN
*I *73:Y O *D CLKBUF1
*I *74:CLK I *L 0
*I *75:CLK I *L 0
*I *76:CLK I *L 0
*I *77:CLK I *L 0
*I *78:CLK I *L 0
*I *79:CLK I *L 0
*I *80:CLK I *L 0
*CAP
1 72_1 0.000102
2 72_2 4.032e-05
3 72_3 0
4 72_4 0.00037944
5 72_5 2.04e-05
6 72_6 0.00023688
7 72_7 0.00042456
8 72_8 1.344e-05
9 72_9 0.000102
10 72_10 0.00035232
11 72_11 2.04e-05
12 72_12 0.00016968
13 72_13 0.00033864
*RES
1 *73:Y 72_1 1.16667
2 72_1 72_2 1.12
3 72_2 72_3 0
4 72_3 *74:CLK 0
5 72_3 72_4 4.34
6 72_4 72_5 0.233333
7 72_5 *75:CLK 0
8 72_5 72_6 4.24667
9 72_6 *76:CLK 0
10 72_1 72_7 10.1267
11 72_7 72_8 0.373333
12 72_8 72_9 1.16667
13 72_9 *77:CLK 0
14 72_8 72_10 5.78667
15 72_10 72_11 0.233333
16 72_11 *78:CLK 0
17 72_11 72_12 2.38
18 72_12 *79:CLK 0
19 72_7 72_13 3.27333
20 72_13 *80:CLK 0
*END
*D_NET *81 0.0012756
*CONN
*I *82:Y O *D BUFX2
*I *83:R I *L 0
*I *84:R I *L 0
*I *85:R I *L 0
*I *86:R I *L 0
*I *87:R I *L 0
*I *88:R I *L 0
*CAP
1 81_1 9.48e-05
2 81_2 0.000102
3 81_3 4.704e-05
4 81_4 0.000102
5 81_5 2.04e-05
6 81_6 0.0002448
7 81_7 0.00025704
8 81_8 0.00016272
9 81_9 0.0002448
*RES
1 *82:Y 81_1 1.63333
2 81_1 81_2 1.16667
3 81_2 *83:R 0
4 81_1 81_3 1.30667
5 81_3 81_4 1.16667
6 81_4 81_5 0.233333
7 81_5 *84:R 0
8 81_5 81_6 2.8
9 81_6 *85:R 0
10 81_6 81_7 2.94
11 81_7 *86:R 0
12 81_3 81_8 2.52
13 81_8 *87:R 0
14 81_8 81_9 2.8
15 81_9 *88:R 0
*END
*D_NET *89 0.00134496
*CONN
*I *90:Y O *D BUFX2
*I *91:R I *L 0
*I *92:R I *L 0
*I *93:R I *L 0
*I *94:R I *L 0
*I *95:R I *L 0
*I *96:R I *L 0
*CAP
1 89_1 2.04e-05
2 89_2 0.0001632
3 89_3 0.00015576
4 89_4 2.04e-05
5 89_5 0.00025128
6 89_6 0.0002448
7 89_7 0.0004284
8 89_8 2.04e-05
9 89_9 4.032e-05
*RES
1 *90:Y 89_1 0.233333
2 89_1 89_2 1.86667
3 89_2 *91:R 0
4 89_1 89_3 2.66
5 89_3 89_4 0.233333
6 89_4 *92:R 0
7 89_4 89_5 3.31333
8 89_5 *93:R 0
9 89_5 89_6 2.8
10 89_6 *94:R 0
11 89_4 89_7 4.9
12 89_7 89_8 0.233333
13 89_8 *95:R 0
14 89_8 89_9 1.12
15 89_9 *96:R 0
*END
*D_NET *97 0.00148392
*CONN
*I *98:Y O *D CLKBUF1
*I *99:CLK I *L 0
*I *100:CLK I *L 0
*I *101:CLK I *L 0
*I *102:CLK I *L 0
*I *103:CLK I *L 0
*I *104:CLK I *L 0
*CAP
1 97_1 6.768e-05
2 97_2 8.736e-05
3 97_3 0
4 97_4 0.00015456
5 97_5 0
6 97_6 0.00037368
7 97_7 2.04e-05
8 97_8 0.00018312
9 97_9 0.0003468
10 97_10 0.000102
11 97_11 0.00014832
*RES
1 *98:Y 97_1 1.21333
2 97_1 97_2 2.42667
3 97_2 97_3 0
4 97_3 *99:CLK 0
5 97_2 97_4 4.29333
6 97_4 97_5 0
7 97_5 *100:CLK 0
8 97_5 97_6 4.71333
9 97_6 97_7 0.233333
10 97_7 *101:CLK 0
11 97_7 97_8 2.75333
12 97_8 *102:CLK 0
13 97_1 97_9 3.96667
14 97_9 97_10 1.16667
15 97_10 *103:CLK 0
16 97_9 97_11 3.45333
17 97_11 *104:CLK 0
*END
*D_NET *105 0.00149448
*CONN
*I *106:Y O *D CLKBUF1
*I *107:CLK I *L 0
*I *108:CLK I *L 0
*I *109:CLK I *L 0
*I *110:CLK I *L 0
*I *111:CLK I *L 0
*I *112:CLK I *L 0
*CAP
1 105_1 4.032e-05
2 105_2 0.000102
3 105_3 8.064e-05
4 105_4 4.032e-05
5 105_5 4.032e-05
6 105_6 8.112e-05
7 105_7 9.84e-05
8 105_8 0.00039984
9 105_9 0.000408
10 105_10 2.04e-05
11 105_11 0.00018312
*RES
1 *106:Y 105_1 1.12
2 105_1 105_2 1.16667
3 105_2 *107:CLK 0
4 105_1 105_3 2.24
5 105_3 105_4 1.12
6 105_4 105_5 1.12
7 105_5 105_6 1.58667
8 105_6 *108:CLK 0
9 105_5 105_7 1.4
10 105_7 *109:CLK 0
11 105_4 105_8 4.57333
12 105_8 *110:CLK 0
13 105_3 105_9 4.66667
14 105_9 105_10 0.233333
15 105_10 *111:CLK 0
16 105_10 105_11 2.75333
17 105_11 *112:CLK 0
*END
*D_NET *113 0.00208872
*CONN
*I *114:Q O *D _289
*I *115:B I *L 0
*I *116:A I *L 0
*I *117:A I *L 0
*I *118:B I *L 0
*I *119:A I *L 0
*I *120:A I *L 0
*CAP
1 113_1 0.00062424
2 113_2 2.04e-05
3 113_3 7.44e-05
4 113_4 2.04e-05
5 113_5 0.0001632
6 113_6 0.00024888
7 113_7 0
8 113_8 4.704e-05
9 113_9 0
10 113_10 0.00059808
11 113_11 0.00029208
*RES
1 *114:Q 113_1 7.14
2 113_1 113_2 0.233333
3 113_2 *115:B 0
4 113_2 113_3 1.4
5 113_3 113_4 0.233333
6 113_4 *116:A 0
7 113_4 113_5 1.86667
8 113_5 113_6 6.58
9 113_6 113_7 0
10 113_7 *117:A 0
11 113_6 113_8 1.30667
12 113_8 113_9 0
13 113_9 *118:B 0
14 113_8 113_10 7.28
15 113_10 *119:A 0
16 113_5 113_11 3.78
17 113_11 *120:A 0
*END
*D_NET *121 0.00101808
*CONN
*I *122:Y O *D BUFX2
*I *123:B I *L 0
*I *124:A I *L 0
*I *125:B I *L 0
*I *126:A I *L 0
*I *127:B I *L 0
*CAP
1 121_1 0.0001104
2 121_2 2.688e-05
3 121_3 6.12e-05
4 121_4 0.00021
5 121_5 6.072e-05
6 121_6 6.12e-05
7 121_7 0.00042024
8 121_8 2.04e-05
9 121_9 4.704e-05
*RES
1 *122:Y 121_1 1.4
2 121_1 121_2 0.746667
3 121_2 121_3 0.7
4 121_3 *123:B 0
5 121_2 121_4 2.38
6 121_4 *124:A 0
7 121_1 121_5 1.35333
8 121_5 121_6 0.7
9 121_6 *125:B 0
10 121_5 121_7 4.80667
11 121_7 121_8 0.233333
12 121_8 *126:A 0
13 121_8 121_9 1.30667
14 121_9 *127:B 0
*END
*D_NET *128 0.0005364
*CONN
*I *129:Y O *D BUFX2
*I *130:A I *L 0
*I *131:B I *L 0
*I *132:A I *L 0
*I *133:B I *L 0
*I *134:A I *L 0
*CAP
1 128_1 0.00012528
2 128_2 0
3 128_3 0.00020832
4 128_4 0
5 128_5 8.112e-05
6 128_6 2.04e-05
7 128_7 3.36e-05
8 128_8 4.08e-05
9 128_9 2.688e-05
*RES
1 *129:Y 128_1 1.58667
2 128_1 128_2 0
3 128_2 *130:A 0
4 128_1 128_3 5.78667
5 128_3 128_4 0
6 128_4 *131:B 0
7 128_3 128_5 1.58667
8 128_5 128_6 0.233333
9 128_6 *132:A 0
10 128_6 128_7 0.933333
11 128_7 128_8 0.466667
12 128_8 *133:B 0
13 128_7 128_9 0.746667
14 128_9 *134:A 0
*END
*D_NET *135 0.0010188
*CONN
*I *136:Y O *D BUFX2
*I *137:B I *L 0
*I *138:A I *L 0
*I *139:C I *L 0
*I *140:B I *L 0
*I *141:A I *L 0
*CAP
1 135_1 2.04e-05
2 135_2 0.00013104
3 135_3 0.00027816
4 135_4 1.344e-05
5 135_5 6.12e-05
6 135_6 2.016e-05
7 135_7 0
8 135_8 0.0002904
9 135_9 0.000204
*RES
1 *136:Y 135_1 0.233333
2 135_1 135_2 1.21333
3 135_2 *137:B 0
4 135_1 135_3 4.06
5 135_3 135_4 0.373333
6 135_4 135_5 0.7
7 135_5 *138:A 0
8 135_4 135_6 0.56
9 135_6 135_7 0
10 135_7 *139:C 0
11 135_7 135_8 2.89333
12 135_8 *140:B 0
13 135_3 135_9 2.33333
14 135_9 *141:A 0
*END
*D_NET *142 0.0017748
*CONN
*I *143:Y O *D _259
*I *144:A I *L 0
*I *145:A I *L 0
*I *146:A I *L 0
*I *147:A I *L 0
*I *148:A I *L 0
*CAP
1 142_1 8.64e-05
2 142_2 0.00035232
3 142_3 4.08e-05
4 142_4 0.00060288
5 142_5 0.00021504
6 142_6 0.000204
7 142_7 0.00012096
8 142_8 0.0001524
*RES
1 *143:Y 142_1 0.56
2 142_1 *144:A 0
3 142_1 142_2 8.18667
4 142_2 142_3 0.466667
5 142_3 *145:A 0
6 142_2 142_4 4.74667
7 142_4 142_5 5.97333
8 142_5 142_6 2.33333
9 142_6 *146:A 0
10 142_5 142_7 3.36
11 142_7 *147:A 0
12 142_4 142_8 1.16667
13 142_8 *148:A 0
*END
*D_NET *149 0.00132384
*CONN
*I *150:Y O *D BUFX2
*I *151:C I *L 0
*I *152:C I *L 0
*I *153:C I *L 0
*I *154:C I *L 0
*I *155:C I *L 0
*CAP
1 149_1 0.00011472
2 149_2 2.688e-05
3 149_3 0
4 149_4 0.00010752
5 149_5 0.00036
6 149_6 0.00018816
7 149_7 0
8 149_8 0.00032256
9 149_9 0.000204
*RES
1 *150:Y 149_1 2.52
2 149_1 149_2 0.746667
3 149_2 149_3 0
4 149_3 *151:C 0
5 149_2 149_4 2.98667
6 149_4 149_5 3.54667
7 149_5 *152:C 0
8 149_4 149_6 5.22667
9 149_6 149_7 0
10 149_7 *153:C 0
11 149_6 149_8 3.73333
12 149_8 *154:C 0
13 149_1 149_9 2.33333
14 149_9 *155:C 0
*END
*D_NET *156 0.00145584
*CONN
*P *156 O
*I *157:A I *L 0
*I *158:A I *L 0
*I *159:A I *L 0
*I *160:A I *L 0
*I *161:A I *L 0
*CAP
1 156_1 0.0001428
2 156_2 2.04e-05
3 156_3 0.0002304
4 156_4 9.024e-05
5 156_5 0.00020832
6 156_6 0.00018144
7 156_7 0.00052464
8 156_8 5.76e-05
*RES
1 *156 156_1 1.63333
2 156_1 156_2 0.233333
3 156_2 *157:A 0
4 156_2 156_3 2.33333
5 156_3 156_4 0.906667
6 156_4 *158:A 0
7 156_3 156_5 5.78667
8 156_5 156_6 5.04
9 156_6 *159:A 0
10 156_5 156_7 4.84
11 156_7 *160:A 0
12 156_7 156_8 0.373333
13 156_8 *161:A 0
*END
*D_NET *162 0.0007464
*CONN
*I *163:Q O *D _303
*I *164:B I *L 0
*I *165:B I *L 0
*I *166:A I *L 0
*I *167:B I *L 0
*I *168:A I *L 0
*CAP
1 162_1 0
2 162_2 0.00015168
3 162_3 2.016e-05
4 162_4 0.0001632
5 162_5 4.08e-05
6 162_6 4.032e-05
7 162_7 4.08e-05
8 162_8 9.456e-05
9 162_9 0.00019488
*RES
1 *163:Q 162_1 0
2 162_1 162_2 2.98667
3 162_2 *164:B 0
4 162_1 162_3 0.56
5 162_3 162_4 1.86667
6 162_4 162_5 0.466667
7 162_5 *165:B 0
8 162_4 162_6 1.12
9 162_6 162_7 0.466667
10 162_7 *166:A 0
11 162_6 162_8 1.96
12 162_8 *167:B 0
13 162_3 162_9 5.41333
14 162_9 *168:A 0
*END
*D_NET *169 0.0010728
*CONN
*I *170:Q O *D _312
*I *171:A I *L 0
*I *172:A I *L 0
*I *173:A I *L 0
*I *174:A I *L 0
*I *175:A I *L 0
*CAP
1 169_1 3.36e-05
2 169_2 2.688e-05
3 169_3 2.04e-05
4 169_4 0.0001428
5 169_5 2.04e-05
6 169_6 0.00041352
7 169_7 0.0001296
8 169_8 0.0002856
*RES
1 *170:Q 169_1 0.933333
2 169_1 169_2 0.746667
3 169_2 *171:A 0
4 169_1 169_3 0.233333
5 169_3 169_4 1.63333
6 169_4 169_5 0.233333
7 169_5 *172:A 0
8 169_5 169_6 6.48667
9 169_6 *173:A 0
10 169_6 169_7 0.84
11 169_7 *174:A 0
12 169_3 169_8 3.26667
13 169_8 *175:A 0
*END
*D_NET *176 0.00120432
*CONN
*I *177:Q O *D _313
*I *178:A I *L 0
*I *179:B I *L 0
*I *180:A I *L 0
*I *181:A I *L 0
*I *182:A I *L 0
*CAP
1 176_1 0.000258
2 176_2 4.08e-05
3 176_3 8.064e-05
4 176_4 9.48e-05
5 176_5 0.0001152
6 176_6 0.0002856
7 176_7 0.0001296
8 176_8 0.00019968
*RES
1 *177:Q 176_1 3.5
2 176_1 176_2 0.466667
3 176_2 *178:A 0
4 176_1 176_3 2.24
5 176_3 176_4 1.63333
6 176_4 176_5 0.746667
7 176_5 *179:B 0
8 176_4 176_6 3.26667
9 176_6 *180:A 0
10 176_6 176_7 0.84
11 176_7 *181:A 0
12 176_3 176_8 1.94667
13 176_8 *182:A 0
*END
*D_NET *183 0.00134928
*CONN
*I *184:Q O *D _314
*I *185:A I *L 0
*I *186:A I *L 0
*I *187:A I *L 0
*I *188:A I *L 0
*I *189:A I *L 0
*CAP
1 183_1 0.00019584
2 183_2 2.04e-05
3 183_3 0.00025728
4 183_4 4.08e-05
5 183_5 0.00024336
6 183_6 0.0004488
7 183_7 0.0001224
8 183_8 2.04e-05
*RES
1 *184:Q 183_1 2.24
2 183_1 183_2 0.233333
3 183_2 *185:A 0
4 183_2 183_3 4.48
5 183_3 183_4 0.466667
6 183_4 *186:A 0
7 183_3 183_5 4.76
8 183_5 183_6 5.13333
9 183_6 *187:A 0
10 183_6 183_7 1.4
11 183_7 *188:A 0
12 183_5 183_8 0.233333
13 183_8 *189:A 0
*END
*D_NET *190 0.00093384
*CONN
*I *191:Y O *D _193
*I *192:A I *L 0
*I *193:C I *L 0
*I *194:B I *L 0
*I *195:A I *L 0
*I *196:B I *L 0
*CAP
1 190_1 4.704e-05
2 190_2 0
3 190_3 0.0001836
4 190_4 4.08e-05
5 190_5 8.64e-05
6 190_6 0.00027168
7 190_7 2.04e-05
8 190_8 0.00025704
9 190_9 2.688e-05
*RES
1 *191:Y 190_1 1.30667
2 190_1 190_2 0
3 190_2 *192:A 0
4 190_2 190_3 2.1
5 190_3 190_4 0.466667
6 190_4 190_5 0.56
7 190_5 *193:C 0
8 190_4 190_6 3.54667
9 190_6 190_7 0.233333
10 190_7 *194:B 0
11 190_7 190_8 2.94
12 190_8 *195:A 0
13 190_3 190_9 0.746667
14 190_9 *196:B 0
*END
*D_NET *197 0.00128736
*CONN
*I *198:Y O *D _196
*I *199:B I *L 0
*I *200:B I *L 0
*I *201:B I *L 0
*I *202:B I *L 0
*I *203:A I *L 0
*CAP
1 197_1 0
2 197_2 0.00010128
3 197_3 0.000258
4 197_4 0
5 197_5 0.0001476
6 197_6 0.0002244
7 197_7 0.00055608
*RES
1 *198:Y 197_1 0
2 197_1 197_2 2.14667
3 197_2 *199:B 0
4 197_1 197_3 3.5
5 197_3 197_4 0
6 197_4 *200:B 0
7 197_4 197_5 1.26
8 197_5 *201:B 0
9 197_4 197_6 2.56667
10 197_6 *202:B 0
11 197_1 197_7 8.44667
12 197_7 *203:A 0
*END
*D_NET *204 0.00110208
*CONN
*I *205:Y O *D _201
*I *206:A I *L 0
*I *207:B I *L 0
*I *208:B I *L 0
*I *209:A I *L 0
*I *210:A I *L 0
*CAP
1 204_1 0.0001104
2 204_2 6.72e-05
3 204_3 8.064e-05
4 204_4 0.00012216
5 204_5 8.16e-05
6 204_6 0.00017568
7 204_7 0.0001584
8 204_8 0.000306
*RES
1 *205:Y 204_1 1.4
2 204_1 204_2 1.86667
3 204_2 *206:A 0
4 204_1 204_3 2.24
5 204_3 204_4 1.72667
6 204_4 204_5 0.933333
7 204_5 *207:B 0
8 204_4 204_6 3.54667
9 204_6 *208:B 0
10 204_6 204_7 1.02667
11 204_7 *209:A 0
12 204_3 204_8 3.5
13 204_8 *210:A 0
*END
*D_NET *211 0.00092952
*CONN
*I *212:Y O *D _210
*I *213:B I *L 0
*I *214:B I *L 0
*I *215:B I *L 0
*I *216:A I *L 0
*I *217:A I *L 0
*CAP
1 211_1 0.0002172
2 211_2 2.04e-05
3 211_3 0.000204
4 211_4 4.704e-05
5 211_5 1.344e-05
6 211_6 0.0001296
7 211_7 0.00029784
*RES
1 *212:Y 211_1 3.03333
2 211_1 211_2 0.233333
3 211_2 *213:B 0
4 211_2 211_3 2.33333
5 211_3 *214:B 0
6 211_2 211_4 1.30667
7 211_4 211_5 0.373333
8 211_5 *215:B 0
9 211_5 211_6 0.84
10 211_6 *216:A 0
11 211_4 211_7 3.40667
12 211_7 *217:A 0
*END
*D_NET *218 0.00052392
*CONN
*P *218 O
*I *219:A I *L 0
*I *220:A I *L 0
*I *221:A I *L 0
*I *222:A I *L 0
*I *223:A I *L 0
*CAP
1 218_1 2.688e-05
2 218_2 2.04e-05
3 218_3 0.0001224
4 218_4 2.04e-05
5 218_5 0.00010128
6 218_6 2.016e-05
7 218_7 0
8 218_8 0.0001632
9 218_9 4.92e-05
*RES
1 *218 218_1 0.746667
2 218_1 218_2 0.233333
3 218_2 *219:A 0
4 218_2 218_3 1.4
5 218_3 218_4 0.233333
6 218_4 *220:A 0
7 218_4 218_5 2.14667
8 218_5 218_6 0.56
9 218_6 218_7 0
10 218_7 *221:A 0
11 218_7 218_8 1.86667
12 218_8 *222:A 0
13 218_5 218_9 0.7
14 218_9 *223:A 0
*END
*D_NET *224 0.00034656
*CONN
*I *225:Y O *D _122
*I *226:A I *L 0
*I *227:A I *L 0
*I *228:A I *L 0
*I *229:A I *L 0
*CAP
1 224_1 8.64e-05
2 224_2 6.048e-05
3 224_3 0
4 224_4 2.688e-05
5 224_5 0.0001728
*RES
1 *225:Y 224_1 0.56
2 224_1 *226:A 0
3 224_1 224_2 1.68
4 224_2 224_3 0
5 224_3 *227:A 0
6 224_2 224_4 0.746667
7 224_4 *228:A 0
8 224_4 224_5 1.12
9 224_5 *229:A 0
*END
*D_NET *230 0.00095664
*CONN
*I *231:Y O *D BUFX2
*I *232:B I *L 0
*I *233:A I *L 0
*I *234:B I *L 0
*I *235:A I *L 0
*CAP
1 230_1 0.00025968
2 230_2 0
3 230_3 4.704e-05
4 230_4 0
5 230_5 0.00023664
6 230_6 2.04e-05
7 230_7 0.00039288
*RES
1 *231:Y 230_1 5.32
2 230_1 230_2 0
3 230_2 *232:B 0
4 230_1 230_3 1.30667
5 230_3 230_4 0
6 230_4 *233:A 0
7 230_4 230_5 2.70667