*SPEF "IEEE 1481.1999"
*DESIGN "alu"
*DATE "15:24:57 Friday May 15, 2020"
*VENDOR "unknown"
*PROGRAM "qrouter"
*VERSION "unknown"
*DESIGN_FLOW "qflow"
*DIVIDER /
*DELIMITER :
*BUS_DELIMITER <>
*T_UNIT 1 PS
*C_UNIT 1 FF
*R_UNIT 1 OHM
*L_UNIT 1 HENRY

*NAME_MAP
*1 _178_
*2 _710_
*3 _836_
*4 _857_
*5 _940_
*6 _919_
*7 _759_
*8 _770_
*9 _879_
*10 _899_
*11 _725_
*12 _711_
*13 _740_
*14 _796_
*15 _808_
*16 _166_
*17 _698_
*18 _953_
*19 _966_
*20 _889_
*21 _878_
*22 _757_
*23 _776_
*24 _737_
*25 _807_
*26 _722_
*27 _701_
*28 _785_
*29 _175_
*30 _707_
*31 _777_
*32 _857_
*33 _758_
*34 _956_
*35 _879_
*36 _738_
*37 _796_
*38 _808_
*39 _723_
*40 _708_
*41 _468_
*42 _516_
*43 _956_
*44 _967_
*45 _953_
*46 _952_
*47 _947_
*48 _948_
*49 _517_
*50 _589_
*51 _961_
*52 _146_
*53 _677_
*54 _739_
*55 _678_
*56 _759_
*57 _919_
*58 _973_
*59 _940_
*60 _899_
*61 _836_
*62 _770_
*63 _151_
*64 _682_
*65 _683_
*66 _718_
*67 _795_
*68 _769_
*69 _939_
*70 _911_
*71 _971_
*72 _834_
*73 _897_
*74 b[1]
*75 _572_
*76 _650_
*77 _611_
*78 _649_
*79 _612_
*80 _729_
*81 _637_
*82 _635_
*83 a[7]
*84 _555_
*85 _629_
*86 _826_
*87 _547_
*88 _546_
*89 _558_
*90 _595_
*91 a[3]
*92 _567_
*93 _581_
*94 _605_
*95 _578_
*96 _748_
*97 _639_
*98 _568_
*99 a[1]
*100 _573_
*101 _611_
*102 _649_
*103 _612_
*104 _634_
*105 _650_
*106 _576_
*107 _133_
*108 _664_
*109 _938_
*110 _941_
*111 _924_
*112 _930_
*113 _928_
*114 _666_
*115 _944_
*116 _171_
*117 _703_
*118 _871_
*119 _845_
*120 _948_
*121 _704_
*122 _733_
*123 _752_
*124 _804_
*125 _433_
*126 _486_
*127 _974_
*128 _964_
*129 _970_
*130 _668_
*131 _503_
*132 _621_
*133 a[9]
*134 _867_
*135 _661_
*136 _489_
*137 _490_
*138 _523_
*139 _526_
*140 b[13]
*141 _537_
*142 _535_
*143 _943_
*144 _520_
*145 _509_
*146 _508_
*147 _467_
*148 _515_
*149 _517_
*150 _541_
*151 _589_
*152 _643_
*153 _969_
*154 _963_
*155 b[7]
*156 _595_
*157 _547_
*158 _546_
*159 _827_
*160 _559_
*161 _556_
*162 a[5]
*163 _598_
*164 _550_
*165 _549_
*166 _599_
*167 _561_
*168 _564_
*169 a[4]
*170 _600_
*171 _552_
*172 _551_
*173 _601_
*174 _765_
*175 _563_
*176 b[3]
*177 _567_
*178 _579_
*179 _605_
*180 _582_
*181 _749_
*182 _568_
*183 b[0]
*184 _614_
*185 _685_
*186 _636_
*187 _574_
*188 _651_
*189 _702_
*190 _63_
*191 _594_
*192 _796_
*193 _800_
*194 _794_
*195 _784_
*196 _604_
*197 _846_
*198 _147_
*199 _678_
*200 _687_
*201 _858_
*202 _957_
*203 _880_
*204 _797_
*205 _809_
*206 _223_
*207 _758_
*208 _974_
*209 _760_
*210 _837_
*211 _920_
*212 _941_
*213 _900_
*214 _359_
*215 _902_
*216 _927_
*217 _918_
*218 _917_
*219 _920_
*220 _909_
*221 _908_
*222 b[15]
*223 _486_
*224 _514_
*225 _513_
*226 _539_
*227 _972_
*228 a[15]
*229 ERROR
*230 _441_
*231 _489_
*232 _850_
*233 _839_
*234 _873_
*235 _858_
*236 _491_
*237 _442_
*238 _490_
*239 _491_
*240 _850_
*241 _874_
*242 _839_
*243 _857_
*244 b[14]
*245 _498_
*246 _516_
*247 _955_
*248 _968_
*249 _501_
*250 b[12]
*251 _504_
*252 _519_
*253 _505_
*254 _935_
*255 _665_
*256 _456_
*257 _504_
*258 _919_
*259 _518_
*260 _950_
*261 _934_
*262 _511_
*263 a[13]
*264 _534_
*265 _945_
*266 _509_
*267 _520_
*268 _508_
*269 _461_
*270 _509_
*271 _664_
*272 _521_
*273 _950_
*274 _940_
*275 _510_
*276 b[6]
*277 _545_
*278 _544_
*279 _799_
*280 _591_
*281 _557_
*282 a[6]
*283 _592_
*284 _545_
*285 _544_
*286 _591_
*287 _558_
*288 _16_
*289 _547_
*290 _819_
*291 _808_
*292 _803_
*293 _802_
*294 _548_
*295 b[5]
*296 _549_
*297 _550_
*298 _598_
*299 _599_
*300 _560_
*301 b[4]
*302 _551_
*303 _600_
*304 _562_
*305 _768_
*306 _552_
*307 b[2]
*308 _569_
*309 _607_
*310 _730_
*311 _580_
*312 _570_
*313 a[2]
*314 _569_
*315 _607_
*316 _570_
*317 _581_
*318 _608_
*319 _66_
*320 _597_
*321 _808_
*322 _805_
*323 _806_
*324 _846_
*325 _604_
*326 _79_
*327 _610_
*328 _640_
*329 _654_
*330 _618_
*331 _786_
*332 _751_
*333 _80_
*334 _611_
*335 _719_
*336 _700_
*337 _613_
*338 _702_
*339 _709_
*340 op_code[1]
*341 _645_
*342 _710_
*343 _622_
*344 _658_
*345 _672_
*346 _165_
*347 _697_
*348 _823_
*349 _855_
*350 _698_
*351 _930_
*352 _918_
*353 _181_
*354 _714_
*355 _723_
*356 _720_
*357 _721_
*358 _715_
*359 _731_
*360 _210_
*361 _745_
*362 _746_
*363 _760_
*364 _847_
*365 _774_
*366 _752_
*367 _218_
*368 _753_
*369 _815_
*370 _775_
*371 _756_
*372 _755_
*373 _771_
*374 _219_
*375 _754_
*376 _775_
*377 _755_
*378 _756_
*379 _771_
*380 _815_
*381 _228_
*382 _764_
*383 _766_
*384 _774_
*385 _767_
*386 _847_
*387 _772_
*388 _275_
*389 _814_
*390 _833_
*391 _843_
*392 _823_
*393 _824_
*394 _853_
*395 _283_
*396 _822_
*397 _824_
*398 _823_
*399 _856_
*400 _916_
*401 _877_
*402 _323_
*403 _864_
*404 _879_
*405 _865_
*406 _895_
*407 _876_
*408 _912_
*409 _342_
*410 _884_
*411 _900_
*412 _888_
*413 _885_
*414 _896_
*415 _905_
*416 _373_
*417 _916_
*418 _951_
*419 _926_
*420 _918_
*421 _927_
*422 _917_
*423 b[8]
*424 _842_
*425 _525_
*426 _488_
*427 _487_
*428 a[8]
*429 _526_
*430 _841_
*431 _488_
*432 _487_
*433 _439_
*434 _487_
*435 _813_
*436 _491_
*437 _855_
*438 _835_
*439 b[9]
*440 _524_
*441 _527_
*442 _490_
*443 _489_
*444 a[10]
*445 _493_
*446 _531_
*447 _492_
*448 _890_
*449 _444_
*450 _492_
*451 _862_
*452 _496_
*453 _888_
*454 _880_
*455 a[11]
*456 _495_
*457 _529_
*458 _531_
*459 _494_
*460 _447_
*461 _495_
*462 _914_
*463 _884_
*464 _496_
*465 _899_
*466 _448_
*467 _496_
*468 _904_
*469 _587_
*470 _497_
*471 _533_
*472 a[14]
*473 _499_
*474 _500_
*475 _955_
*476 _516_
*477 a[12]
*478 _504_
*479 _519_
*480 _506_
*481 _536_
*482 _470_
*483 _518_
*484 _902_
*485 _928_
*486 _930_
*487 _521_
*488 _15_
*489 _546_
*490 _803_
*491 _802_
*492 _809_
*493 _548_
*494 _17_
*495 _548_
*496 _628_
*497 _566_
*498 _832_
*499 _554_
*500 _19_
*501 _550_
*502 _770_
*503 _781_
*504 _764_
*505 _553_
*506 _25_
*507 _556_
*508 _596_
*509 _826_
*510 _558_
*511 _629_
*512 _38_
*513 _569_
*514 _571_
*515 _716_
*516 _735_
*517 _753_
*518 a[0]
*519 _614_
*520 _615_
*521 _575_
*522 _685_
*523 _48_
*524 _579_
*525 _581_
*526 _606_
*527 _639_
*528 _748_
*529 _59_
*530 _590_
*531 _620_
*532 _691_
*533 _642_
*534 _671_
*535 _60_
*536 _591_
*537 _594_
*538 _819_
*539 _805_
*540 _806_
*541 _69_
*542 _600_
*543 _759_
*544 _776_
*545 _781_
*546 _603_
*547 _73_
*548 _604_
*549 _641_
*550 _830_
*551 _840_
*552 _619_
*553 _82_
*554 _613_
*555 _705_
*556 _699_
*557 _618_
*558 _708_
*559 _83_
*560 _614_
*561 _617_
*562 _675_
*563 _700_
*564 _719_
*565 _84_
*566 _615_
*567 _616_
*568 _636_
*569 _702_
*570 _651_
*571 op_code[0]
*572 _646_
*573 _622_
*574 _657_
*575 _672_
*576 op_code[3]
*577 _623_
*578 _706_
*579 _680_
*580 _681_
*581 _93_
*582 _624_
*583 _625_
*584 _706_
*585 _681_
*586 _697_
*587 _121_
*588 _652_
*589 _717_
*590 _747_
*591 _729_
*592 _653_
*593 _127_
*594 _658_
*595 _703_
*596 _682_
*597 _684_
*598 _659_
*599 _141_
*600 _672_
*601 _677_
*602 _724_
*603 _709_
*604 _673_
*605 _145_
*606 _676_
*607 _684_
*608 _677_
*609 _724_
*610 _709_
*611 _150_
*612 _681_
*613 _682_
*614 _690_
*615 _688_
*616 _703_
*617 _186_
*618 _719_
*619 _720_
*620 _721_
*621 _735_
*622 _754_
*623 _211_
*624 _746_
*625 _773_
*626 _755_
*627 _756_
*628 _750_
*629 _244_
*630 _781_
*631 _848_
*632 _783_
*633 _818_
*634 _782_
*635 _274_
*636 _813_
*637 _837_
*638 _829_
*639 _814_
*640 _851_
*641 _289_
*642 _828_
*643 _840_
*644 _903_
*645 _893_
*646 _829_
*647 _299_
*648 _839_
*649 _855_
*650 _852_
*651 _844_
*652 _845_
*653 _324_
*654 _865_
*655 _870_
*656 _886_
*657 _869_
*658 _878_
*659 _327_
*660 _868_
*661 _894_
*662 _869_
*663 _870_
*664 _904_
*665 _440_
*666 _488_
*667 _836_
*668 _491_
*669 _813_
*670 _443_
*671 _491_
*672 _497_
*673 _893_
*674 _586_
*675 b[10]
*676 _492_
*677 _493_
*678 _530_
*679 _445_
*680 _493_
*681 _863_
*682 _879_
*683 _496_
*684 b[11]
*685 _494_
*686 _495_
*687 _528_
*688 _446_
*689 _494_
*690 _898_
*691 _884_
*692 _496_
*693 _452_
*694 _500_
*695 _501_
*696 _954_
*697 _968_
*698 _453_
*699 _501_
*700 _502_
*701 _538_
*702 _668_
*703 _458_
*704 _506_
*705 _935_
*706 _665_
*707 _507_
*708 _460_
*709 _508_
*710 _511_
*711 _940_
*712 _950_
*713 _464_
*714 _512_
*715 _585_
*716 _689_
*717 _655_
*718 _471_
*719 _519_
*720 _919_
*721 _902_
*722 _521_
*723 _476_
*724 _524_
*725 _661_
*726 _867_
*727 _526_
*728 _481_
*729 _529_
*730 _905_
*731 _532_
*732 _663_
*733 _9_
*734 _540_
*735 _541_
*736 _667_
*737 _620_
*738 _13_
*739 _544_
*740 _797_
*741 _780_
*742 _548_
*743 _14_
*744 _545_
*745 _796_
*746 _780_
*747 _548_
*748 _20_
*749 _551_
*750 _553_
*751 _772_
*752 _745_
*753 _21_
*754 _552_
*755 _553_
*756 _745_
*757 _759_
*758 _23_
*759 _554_
*760 _584_
*761 _825_
*762 _654_
*763 _24_
*764 _555_
*765 _596_
*766 _559_
*767 _827_
*768 _30_
*769 _561_
*770 _789_
*771 _565_
*772 _630_
*773 _31_
*774 _562_
*775 _765_
*776 _563_
*777 _602_
*778 _33_
*779 _564_
*780 _789_
*781 _565_
*782 _631_
*783 _36_
*784 _567_
*785 _728_
*786 _753_
*787 _571_
*788 _37_
*789 _568_
*790 _740_
*791 _728_
*792 _571_
*793 _39_
*794 _570_
*795 _725_
*796 _571_
*797 _716_
*798 _45_
*799 _576_
*800 _577_
*801 _717_
*802 _747_
*803 _47_
*804 _578_
*805 _582_
*806 _606_
*807 _749_
*808 _67_
*809 _598_
*810 _781_
*811 _603_
*812 _770_
*813 _74_
*814 _605_
*815 _734_
*816 _739_
*817 _610_
*818 _75_
*819 _606_
*820 _734_
*821 _753_
*822 _610_
*823 _76_
*824 _607_
*825 _714_
*826 _610_
*827 _724_
*828 _81_
*829 _612_
*830 _700_
*831 _613_
*832 _702_
*833 _103_
*834 _634_
*835 _729_
*836 _637_
*837 _635_
*838 _106_
*839 _637_
*840 _786_
*841 _715_
*842 _638_
*843 _113_
*844 _644_
*845 _659_
*846 _673_
*847 _647_
*848 _119_
*849 _650_
*850 _711_
*851 _719_
*852 _652_
*853 _126_
*854 _657_
*855 _710_
*856 _658_
*857 _679_
*858 _153_
*859 _684_
*860 _685_
*861 _972_
*862 _955_
*863 _170_
*864 _702_
*865 _715_
*866 _704_
*867 _786_
*868 _183_
*869 _716_
*870 _717_
*871 _735_
*872 _754_
*873 _194_
*874 _728_
*875 _754_
*876 _732_
*877 _733_
*878 _200_
*879 _734_
*880 _738_
*881 _736_
*882 _737_
*883 _214_
*884 _749_
*885 _751_
*886 _825_
*887 _750_
*888 _215_
*889 _750_
*890 _762_
*891 _766_
*892 _768_
*893 _216_
*894 _751_
*895 _840_
*896 _752_
*897 _793_
*898 _231_
*899 _767_
*900 _776_
*901 _777_
*902 _769_
*903 _239_
*904 _775_
*905 _777_
*906 _783_
*907 _782_
*908 _243_
*909 _780_
*910 _816_
*911 _791_
*912 _782_
*913 _245_
*914 _782_
*915 _785_
*916 _806_
*917 _805_
*918 _252_
*919 _789_
*920 _792_
*921 _790_
*922 _828_
*923 _286_
*924 _825_
*925 _829_
*926 _893_
*927 _903_
*928 _291_
*929 _830_
*930 _833_
*931 _932_
*932 _866_
*933 _293_
*934 _832_
*935 _833_
*936 _866_
*937 _932_
*938 _296_
*939 _835_
*940 _836_
*941 _850_
*942 _874_
*943 _313_
*944 _853_
*945 _872_
*946 _854_
*947 _913_
*948 _321_
*949 _862_
*950 _914_
*951 _887_
*952 _864_
*953 _343_
*954 _885_
*955 _892_
*956 _887_
*957 _912_
*958 _348_
*959 _890_
*960 _891_
*961 _905_
*962 _896_
*963 _401_
*964 _946_
*965 _948_
*966 _947_
*967 _967_
*968 _406_
*969 _951_
*970 _952_
*971 _953_
*972 _961_
*973 _409_
*974 _954_
*975 _957_
*976 _964_
*977 _962_
*978 _483_[13]
*979 _942_
*980 _982_
*981 _1000_
*982 _483_[15]
*983 _975_
*984 _986_
*985 _1002_
*986 _449_
*987 _497_
*988 _932_
*989 _512_
*990 _450_
*991 _498_
*992 _499_
*993 _954_
*994 _451_
*995 _499_
*996 _970_
*997 _502_
*998 _455_
*999 _503_
*1000 _512_
*1001 _669_
*1002 _457_
*1003 _505_
*1004 _536_
*1005 _507_
*1006 _459_
*1007 _507_
*1008 _934_
*1009 _511_
*1010 _463_
*1011 _511_
*1012 _589_
*1013 _512_
*1014 _465_
*1015 _513_
*1016 _973_
*1017 _515_
*1018 _469_
*1019 _517_
*1020 _542_
*1021 _522_
*1022 _472_
*1023 _520_
*1024 _521_
*1025 _664_
*1026 _473_
*1027 _521_
*1028 _946_
*1029 _522_
*1030 _478_
*1031 _526_
*1032 _662_
*1033 _527_
*1034 _480_
*1035 _528_
*1036 _529_
*1037 _531_
*1038 _482_
*1039 _530_
*1040 _531_
*1041 _890_
*1042 _0_
*1043 _531_
*1044 _532_
*1045 _663_
*1046 _3_
*1047 _534_
*1048 _537_
*1049 _535_
*1050 _4_
*1051 _535_
*1052 _666_
*1053 _536_
*1054 _12_
*1055 _543_
*1056 _643_
*1057 _585_
*1058 _18_
*1059 _549_
*1060 _553_
*1061 _764_
*1062 _22_
*1063 _553_
*1064 _554_
*1065 _793_
*1066 _26_
*1067 _557_
*1068 _558_
*1069 _593_
*1070 _27_
*1071 _558_
*1072 _633_
*1073 _559_
*1074 _29_
*1075 _560_
*1076 _561_
*1077 _564_
*1078 _32_
*1079 _563_
*1080 _565_
*1081 _631_
*1082 _40_
*1083 _571_
*1084 _583_
*1085 _747_
*1086 _41_
*1087 _572_
*1088 _576_
*1089 _573_
*1090 _43_
*1091 _574_
*1092 _575_
*1093 _616_
*1094 _49_
*1095 _580_
*1096 _581_
*1097 _609_
*1098 _50_
*1099 _581_
*1100 _582_
*1101 _640_
*1102 _54_
*1103 _585_
*1104 _660_
*1105 _621_
*1106 _55_
*1107 _586_
*1108 _866_
*1109 _588_
*1110 _56_
*1111 _587_
*1112 _663_
*1113 _588_
*1114 _57_
*1115 _588_
*1116 _903_
*1117 _590_
*1118 _58_
*1119 _589_
*1120 _670_
*1121 _590_
*1122 _61_
*1123 _592_
*1124 _593_
*1125 _799_
*1126 _64_
*1127 _595_
*1128 _597_
*1129 _819_
*1130 _70_
*1131 _601_
*1132 _768_
*1133 _602_
*1134 _72_
*1135 _603_
*1136 _604_
*1137 _790_
*1138 _77_
*1139 _608_
*1140 _730_
*1141 _609_
*1142 _78_
*1143 _609_
*1144 _714_
*1145 _610_
*1146 _86_
*1147 _617_
*1148 _618_
*1149 _686_
*1150 _88_
*1151 _619_
*1152 _691_
*1153 _620_
*1154 _89_
*1155 _620_
*1156 _648_
*1157 _621_
*1158 _91_
*1159 _622_
*1160 _707_
*1161 _626_
*1162 _92_
*1163 _623_
*1164 _625_
*1165 _676_
*1166 op_code[2]
*1167 _676_
*1168 _624_
*1169 _94_
*1170 _625_
*1171 _626_
*1172 _644_
*1173 _97_
*1174 _628_
*1175 _633_
*1176 _828_
*1177 _98_
*1178 _629_
*1179 _831_
*1180 _633_
*1181 _105_
*1182 _636_
*1183 _638_
*1184 _653_
*1185 _108_
*1186 _639_
*1187 _787_
*1188 _640_
*1189 _110_
*1190 _641_
*1191 _671_
*1192 _642_
*1193 _114_
*1194 _645_
*1195 _646_
*1196 _679_
*1197 _115_
*1198 _646_
*1199 _688_
*1200 _647_
*1201 _120_
*1202 _651_
*1203 _705_
*1204 _652_
*1205 _123_
*1206 _654_
*1207 _655_
*1208 _689_
*1209 _124_
*1210 _655_
*1211 _656_
*1212 _674_
*1213 _130_
*1214 _661_
*1215 _868_
*1216 _662_
*1217 _144_
*1218 _675_
*1219 _687_
*1220 _699_
*1221 _148_
*1222 _679_
*1223 _680_
*1224 _690_
*1225 _149_
*1226 _680_
*1227 _683_
*1228 _697_
*1229 _164_
*1230 _695_
*1231 _696_
*1232 _983_
*1233 _174_
*1234 _706_
*1235 _707_
*1236 _710_
*1237 _483_[1]
*1238 _713_
*1239 _988_
*1240 _976_
*1241 _483_[2]
*1242 _727_
*1243 _989_
*1244 _976_
*1245 _195_
*1246 _729_
*1247 _731_
*1248 _751_
*1249 _196_
*1250 _730_
*1251 _748_
*1252 _731_
*1253 _197_
*1254 _731_
*1255 _732_
*1256 _733_
*1257 _201_
*1258 _735_
*1259 _737_
*1260 _736_
*1261 _209_
*1262 _743_
*1263 _977_
*1264 _744_
*1265 _212_
*1266 _747_
*1267 _825_
*1268 _750_
*1269 _213_
*1270 _748_
*1271 _787_
*1272 _749_
*1273 _227_
*1274 _762_
*1275 _763_
*1276 _977_
*1277 _229_
*1278 _765_
*1279 _766_
*1280 _789_
*1281 _235_
*1282 _771_
*1283 _773_
*1284 _849_
*1285 _238_
*1286 _774_
*1287 _775_
*1288 _817_
*1289 _483_[5]
*1290 _779_
*1291 _992_
*1292 _979_
*1293 _249_
*1294 _786_
*1295 _830_
*1296 _788_
*1297 _250_
*1298 _787_
*1299 _788_
*1300 _830_
*1301 _255_
*1302 _792_
*1303 _832_
*1304 _793_
*1305 _256_
*1306 _793_
*1307 _794_
*1308 _800_
*1309 _483_[6]
*1310 _798_
*1311 _979_
*1312 _993_
*1313 _261_
*1314 _799_
*1315 _826_
*1316 _800_
*1317 _262_
*1318 _800_
*1319 _801_
*1320 _804_
*1321 _265_
*1322 _803_
*1323 _816_
*1324 _804_
*1325 _273_
*1326 _811_
*1327 _812_
*1328 _980_
*1329 _277_
*1330 _816_
*1331 _821_
*1332 _817_
*1333 _280_
*1334 _819_
*1335 _820_
*1336 _848_
*1337 _287_
*1338 _826_
*1339 _831_
*1340 _827_
*1341 _483_[8]
*1342 _838_
*1343 _995_
*1344 _978_
*1345 _302_
*1346 _842_
*1347 _867_
*1348 _843_
*1349 _303_
*1350 _843_
*1351 _845_
*1352 _844_
*1353 _306_
*1354 _846_
*1355 _848_
*1356 _847_
*1357 _309_
*1358 _849_
*1359 _851_
*1360 _872_
*1361 _312_
*1362 _852_
*1363 _857_
*1364 _853_
*1365 _314_
*1366 _854_
*1367 _856_
*1368 _877_
*1369 _320_
*1370 _860_
*1371 _861_
*1372 _981_
*1373 _325_
*1374 _866_
*1375 _869_
*1376 _870_
*1377 _329_
*1378 _870_
*1379 _892_
*1380 _871_
*1381 _333_
*1382 _874_
*1383 _875_
*1384 _915_
*1385 _334_
*1386 _875_
*1387 _877_
*1388 _876_
*1389 _335_
*1390 _876_
*1391 _888_
*1392 _881_
*1393 _336_
*1394 _877_
*1395 _878_
*1396 _886_
*1397 _341_
*1398 _882_
*1399 _983_
*1400 _883_
*1401 _356_
*1402 _898_
*1403 _914_
*1404 _899_
*1405 _483_[11]
*1406 _901_
*1407 _984_
*1408 _998_
*1409 _360_
*1410 _903_
*1411 _907_
*1412 _910_
*1413 _361_
*1414 _904_
*1415 _933_
*1416 _906_
*1417 _362_
*1418 _905_
*1419 _906_
*1420 _933_
*1421 _363_
*1422 _906_
*1423 _907_
*1424 _910_
*1425 _364_
*1426 _907_
*1427 _908_
*1428 _946_
*1429 _366_
*1430 _909_
*1431 _910_
*1432 _925_
*1433 _367_
*1434 _910_
*1435 _911_
*1436 _938_
*1437 _368_
*1438 _911_
*1439 _981_
*1440 _923_
*1441 _369_
*1442 _912_
*1443 _915_
*1444 _913_
*1445 _379_
*1446 _922_
*1447 _981_
*1448 _923_
*1449 _380_
*1450 _924_
*1451 _936_
*1452 _925_
*1453 _381_
*1454 _925_
*1455 _951_
*1456 _926_
*1457 _391_
*1458 _935_
*1459 _936_
*1460 _937_
*1461 _393_
*1462 _937_
*1463 _944_
*1464 _938_
*1465 _414_
*1466 _959_
*1467 _960_
*1468 _985_
*1469 _415_
*1470 _961_
*1471 _964_
*1472 _962_
*1473 _417_
*1474 _963_
*1475 _966_
*1476 _965_
*1477 _418_
*1478 _964_
*1479 _966_
*1480 _965_
*1481 _420_
*1482 _967_
*1483 _970_
*1484 _968_
*1485 alu_output[13]
*1486 _1000_
*1487 _483_[14]
*1488 _960_
*1489 _1001_
*1490 alu_output[14]
*1491 _1001_
*1492 alu_output[15]
*1493 _1002_
*1494 _484_
*1495 _965_
*1496 _1003_
*1497 carryout
*1498 _1003_
*1499 _485_
*1500 _986_
*1501 _1004_
*1502 zero_flag
*1503 _1004_
*1504 _454_
*1505 _502_
*1506 _503_
*1507 _462_
*1508 _510_
*1509 _511_
*1510 _466_
*1511 _514_
*1512 _515_
*1513 _474_
*1514 _522_
*1515 _543_
*1516 _475_
*1517 _523_
*1518 _527_
*1519 _477_
*1520 _525_
*1521 _526_
*1522 _479_
*1523 _527_
*1524 _533_
*1525 _1_
*1526 _532_
*1527 _533_
*1528 _2_
*1529 _533_
*1530 _543_
*1531 _5_
*1532 _536_
*1533 _537_
*1534 _6_
*1535 _537_
*1536 _542_
*1537 _7_
*1538 _538_
*1539 _541_
*1540 _8_
*1541 _539_
*1542 _540_
*1543 _10_
*1544 _541_
*1545 _542_
*1546 _11_
*1547 _542_
*1548 _543_
*1549 _28_
*1550 _559_
*1551 _566_
*1552 _34_
*1553 _565_
*1554 _566_
*1555 _35_
*1556 _566_
*1557 _584_
*1558 _42_
*1559 _573_
*1560 _577_
*1561 _44_
*1562 _575_
*1563 _577_
*1564 _46_
*1565 _577_
*1566 _583_
*1567 _51_
*1568 _582_
*1569 _583_
*1570 _52_
*1571 _583_
*1572 _584_
*1573 _53_
*1574 _584_
*1575 _585_
*1576 _62_
*1577 _593_
*1578 _594_
*1579 _65_
*1580 _596_
*1581 _597_
*1582 _68_
*1583 _599_
*1584 _603_
*1585 _71_
*1586 _602_
*1587 _603_
*1588 _85_
*1589 _616_
*1590 _617_
*1591 _87_
*1592 _618_
*1593 _619_
*1594 _90_
*1595 _621_
*1596 _627_
*1597 _95_
*1598 _626_
*1599 _627_
*1600 _96_
*1601 _627_
*1602 _695_
*1603 _99_
*1604 _630_
*1605 _632_
*1606 _100_
*1607 _631_
*1608 _632_
*1609 _101_
*1610 _632_
*1611 _633_
*1612 _102_
*1613 _633_
*1614 _641_
*1615 _104_
*1616 _635_
*1617 _638_
*1618 _107_
*1619 _638_
*1620 _640_
*1621 _109_
*1622 _640_
*1623 _641_
*1624 _111_
*1625 _642_
*1626 _643_
*1627 _112_
*1628 _643_
*1629 _648_
*1630 _116_
*1631 _647_
*1632 _648_
*1633 _117_
*1634 _648_
*1635 _695_
*1636 _118_
*1637 _649_
*1638 _652_
*1639 _122_
*1640 _653_
*1641 _654_
*1642 _125_
*1643 _656_
*1644 _660_
*1645 _128_
*1646 _659_
*1647 _660_
*1648 _129_
*1649 _660_
*1650 _694_
*1651 _131_
*1652 _662_
*1653 _663_
*1654 _132_
*1655 _663_
*1656 _670_
*1657 _134_
*1658 _665_
*1659 _666_
*1660 _135_
*1661 _666_
*1662 _669_
*1663 _136_
*1664 _667_
*1665 _668_
*1666 _137_
*1667 _668_
*1668 _669_
*1669 _138_
*1670 _669_
*1671 _670_
*1672 _139_
*1673 _670_
*1674 _671_
*1675 _140_
*1676 _671_
*1677 _674_
*1678 _142_
*1679 _673_
*1680 _674_
*1681 _143_
*1682 _674_
*1683 _694_
*1684 _152_
*1685 _683_
*1686 _686_
*1687 _154_
*1688 _685_
*1689 _686_
*1690 _155_
*1691 _686_
*1692 _687_
*1693 _156_
*1694 _687_
*1695 _692_
*1696 _157_
*1697 _688_
*1698 _689_
*1699 _158_
*1700 _689_
*1701 _692_
*1702 _159_
*1703 _690_
*1704 _691_
*1705 _160_
*1706 _691_
*1707 _692_
*1708 _161_
*1709 _692_
*1710 _693_
*1711 _162_
*1712 _693_
*1713 _694_
*1714 _163_
*1715 _694_
*1716 _695_
*1717 _483_[0]
*1718 _696_
*1719 _987_
*1720 _167_
*1721 _699_
*1722 _701_
*1723 _168_
*1724 _700_
*1725 _701_
*1726 _169_
*1727 _701_
*1728 _713_
*1729 _172_
*1730 _704_
*1731 _705_
*1732 _173_
*1733 _705_
*1734 _713_
*1735 _176_
*1736 _708_
*1737 _712_
*1738 _177_
*1739 _709_
*1740 _712_
*1741 _179_
*1742 _711_
*1743 _712_
*1744 _180_
*1745 _712_
*1746 _713_
*1747 _182_
*1748 _715_
*1749 _718_
*1750 _184_
*1751 _717_
*1752 _718_
*1753 _185_
*1754 _718_
*1755 _727_
*1756 _187_
*1757 _720_
*1758 _722_
*1759 _188_
*1760 _721_
*1761 _722_
*1762 _189_
*1763 _722_
*1764 _727_
*1765 _190_
*1766 _723_
*1767 _726_
*1768 _191_
*1769 _724_
*1770 _726_
*1771 _192_
*1772 _725_
*1773 _726_
*1774 _193_
*1775 _726_
*1776 _727_
*1777 _198_
*1778 _732_
*1779 _743_
*1780 _199_
*1781 _733_
*1782 _743_
*1783 _202_
*1784 _736_
*1785 _742_
*1786 _203_
*1787 _737_
*1788 _742_
*1789 _204_
*1790 _738_
*1791 _741_
*1792 _205_
*1793 _739_
*1794 _741_
*1795 _206_
*1796 _740_
*1797 _741_
*1798 _207_
*1799 _741_
*1800 _742_
*1801 _208_
*1802 _742_
*1803 _743_
*1804 _483_[3]
*1805 _744_
*1806 _990_
*1807 _217_
*1808 _752_
*1809 _762_
*1810 _220_
*1811 _755_
*1812 _761_
*1813 _221_
*1814 _756_
*1815 _757_
*1816 _222_
*1817 _757_
*1818 _761_
*1819 _224_
*1820 _759_
*1821 _760_
*1822 _225_
*1823 _760_
*1824 _761_
*1825 _226_
*1826 _761_
*1827 _762_
*1828 _483_[4]
*1829 _763_
*1830 _991_
*1831 _230_
*1832 _766_
*1833 _779_
*1834 _232_
*1835 _768_
*1836 _769_
*1837 _233_
*1838 _769_
*1839 _779_
*1840 _234_
*1841 _770_
*1842 _778_
*1843 _236_
*1844 _772_
*1845 _773_
*1846 _237_
*1847 _773_
*1848 _778_
*1849 _240_
*1850 _776_
*1851 _777_
*1852 _241_
*1853 _777_
*1854 _778_
*1855 _242_
*1856 _778_
*1857 _779_
*1858 _246_
*1859 _783_
*1860 _784_
*1861 _247_
*1862 _784_
*1863 _785_
*1864 _248_
*1865 _785_
*1866 _798_
*1867 _251_
*1868 _788_
*1869 _790_
*1870 _253_
*1871 _790_
*1872 _791_
*1873 _254_
*1874 _791_
*1875 _795_
*1876 _257_
*1877 _794_
*1878 _795_
*1879 _258_
*1880 _795_
*1881 _798_
*1882 _259_
*1883 _796_
*1884 _797_
*1885 _260_
*1886 _797_
*1887 _798_
*1888 _263_
*1889 _801_
*1890 _802_
*1891 _264_
*1892 _802_
*1893 _811_
*1894 _266_
*1895 _804_
*1896 _811_
*1897 _267_
*1898 _805_
*1899 _810_
*1900 _268_
*1901 _806_
*1902 _807_
*1903 _269_
*1904 _807_
*1905 _810_
*1906 _270_
*1907 _808_
*1908 _809_
*1909 _271_
*1910 _809_
*1911 _810_
*1912 _272_
*1913 _810_
*1914 _811_
*1915 _483_[7]
*1916 _812_
*1917 _994_
*1918 _276_
*1919 _815_
*1920 _822_
*1921 _278_
*1922 _817_
*1923 _822_
*1924 _279_
*1925 _818_
*1926 _821_
*1927 _281_
*1928 _820_
*1929 _821_
*1930 _282_
*1931 _821_
*1932 _822_
*1933 _284_
*1934 _823_
*1935 _824_
*1936 _285_
*1937 _824_
*1938 _838_
*1939 _288_
*1940 _827_
*1941 _828_
*1942 _290_
*1943 _829_
*1944 _834_
*1945 _292_
*1946 _831_
*1947 _832_
*1948 _294_
*1949 _833_
*1950 _834_
*1951 _295_
*1952 _834_
*1953 _838_
*1954 _297_
*1955 _836_
*1956 _837_
*1957 _298_
*1958 _837_
*1959 _838_
*1960 _300_
*1961 _840_
*1962 _843_
*1963 _301_
*1964 _841_
*1965 _842_
*1966 _304_
*1967 _844_
*1968 _860_
*1969 _305_
*1970 _845_
*1971 _860_
*1972 _307_
*1973 _847_
*1974 _849_
*1975 _308_
*1976 _848_
*1977 _849_
*1978 _310_
*1979 _850_
*1980 _851_
*1981 _311_
*1982 _851_
*1983 _859_
*1984 _315_
*1985 _855_
*1986 _856_
*1987 _316_
*1988 _856_
*1989 _859_
*1990 _317_
*1991 _857_
*1992 _858_
*1993 _318_
*1994 _858_
*1995 _859_
*1996 _319_
*1997 _859_
*1998 _860_
*1999 _483_[9]
*2000 _861_
*2001 _996_
*2002 _322_
*2003 _863_
*2004 _864_
*2005 _326_
*2006 _867_
*2007 _868_
*2008 _328_
*2009 _869_
*2010 _882_
*2011 _330_
*2012 _871_
*2013 _882_
*2014 _331_
*2015 _872_
*2016 _876_
*2017 _332_
*2018 _873_
*2019 _874_
*2020 _337_
*2021 _878_
*2022 _881_
*2023 _338_
*2024 _879_
*2025 _880_
*2026 _339_
*2027 _880_
*2028 _881_
*2029 _340_
*2030 _881_
*2031 _882_
*2032 _483_[10]
*2033 _883_
*2034 _997_
*2035 _344_
*2036 _886_
*2037 _887_
*2038 _345_
*2039 _887_
*2040 _889_
*2041 _346_
*2042 _888_
*2043 _889_
*2044 _347_
*2045 _889_
*2046 _901_
*2047 _349_
*2048 _891_
*2049 _892_
*2050 _350_
*2051 _892_
*2052 _897_
*2053 _351_
*2054 _893_
*2055 _895_
*2056 _352_
*2057 _894_
*2058 _895_
*2059 _353_
*2060 _895_
*2061 _896_
*2062 _354_
*2063 _896_
*2064 _897_
*2065 _355_
*2066 _897_
*2067 _901_
*2068 _357_
*2069 _899_
*2070 _900_
*2071 _358_
*2072 _900_
*2073 _901_
*2074 _365_
*2075 _908_
*2076 _911_
*2077 _370_
*2078 _913_
*2079 _916_
*2080 _371_
*2081 _914_
*2082 _915_
*2083 _372_
*2084 _915_
*2085 _916_
*2086 _374_
*2087 _917_
*2088 _922_
*2089 _375_
*2090 _918_
*2091 _922_
*2092 _376_
*2093 _919_
*2094 _920_
*2095 _377_
*2096 _920_
*2097 _921_
*2098 _378_
*2099 _921_
*2100 _922_
*2101 _483_[12]
*2102 _923_
*2103 _999_
*2104 _382_
*2105 _926_
*2106 _931_
*2107 _383_
*2108 _927_
*2109 _929_
*2110 _384_
*2111 _928_
*2112 _929_
*2113 _385_
*2114 _929_
*2115 _931_
*2116 _386_
*2117 _930_
*2118 _931_
*2119 _387_
*2120 _931_
*2121 _942_
*2122 _388_
*2123 _932_
*2124 _934_
*2125 _389_
*2126 _933_
*2127 _934_
*2128 _390_
*2129 _934_
*2130 _936_
*2131 _392_
*2132 _936_
*2133 _939_
*2134 _394_
*2135 _938_
*2136 _939_
*2137 _395_
*2138 _939_
*2139 _942_
*2140 _396_
*2141 _940_
*2142 _941_
*2143 _397_
*2144 _941_
*2145 _942_
*2146 _398_
*2147 _943_
*2148 _945_
*2149 _399_
*2150 _944_
*2151 _945_
*2152 _400_
*2153 _945_
*2154 _946_
*2155 _402_
*2156 _947_
*2157 _949_
*2158 _403_
*2159 _948_
*2160 _949_
*2161 _404_
*2162 _949_
*2163 _959_
*2164 _405_
*2165 _950_
*2166 _951_
*2167 _407_
*2168 _952_
*2169 _958_
*2170 _408_
*2171 _953_
*2172 _958_
*2173 _410_
*2174 _955_
*2175 _956_
*2176 _411_
*2177 _956_
*2178 _957_
*2179 _412_
*2180 _957_
*2181 _958_
*2182 _413_
*2183 _958_
*2184 _959_
*2185 _416_
*2186 _962_
*2187 _963_
*2188 _419_
*2189 _966_
*2190 _975_
*2191 _421_
*2192 _968_
*2193 _969_
*2194 _422_
*2195 _969_
*2196 _971_
*2197 _423_
*2198 _970_
*2199 _971_
*2200 _424_
*2201 _971_
*2202 _975_
*2203 _425_
*2204 _972_
*2205 _973_
*2206 _426_
*2207 _973_
*2208 _974_
*2209 _427_
*2210 _974_
*2211 _975_
*2212 _428_
*2213 _976_
*2214 _977_
*2215 _429_
*2216 _977_
*2217 _978_
*2218 _430_
*2219 _978_
*2220 _980_
*2221 _431_
*2222 _979_
*2223 _980_
*2224 _432_
*2225 _980_
*2226 _982_
*2227 _434_
*2228 _981_
*2229 _982_
*2230 _435_
*2231 _982_
*2232 _985_
*2233 _436_
*2234 _983_
*2235 _984_
*2236 _437_
*2237 _984_
*2238 _985_
*2239 _438_
*2240 _985_
*2241 _986_
*2242 alu_output[0]
*2243 _987_
*2244 alu_output[1]
*2245 _988_
*2246 alu_output[2]
*2247 _989_
*2248 alu_output[3]
*2249 _990_
*2250 alu_output[4]
*2251 _991_
*2252 alu_output[5]
*2253 _992_
*2254 alu_output[6]
*2255 _993_
*2256 alu_output[7]
*2257 _994_
*2258 alu_output[8]
*2259 _995_
*2260 alu_output[9]
*2261 _996_
*2262 alu_output[10]
*2263 _997_
*2264 alu_output[11]
*2265 _998_
*2266 alu_output[12]
*2267 _999_

*PORTS
*74 I
*83 I
*91 I
*99 I
*133 I
*140 I
*155 I
*162 I
*169 I
*176 I
*183 I
*222 I
*228 I
*244 I
*250 I
*263 I
*276 I
*282 I
*295 I
*301 I
*307 I
*313 I
*340 I
*423 I
*428 I
*439 I
*444 I
*455 I
*472 I
*477 I
*518 I
*571 I
*576 I
*675 I
*684 I
*1166 I
*1485 O
*1490 O
*1492 O
*1497 O
*1502 O
*2242 O
*2244 O
*2246 O
*2248 O
*2250 O
*2252 O
*2254 O
*2256 O
*2258 O
*2260 O
*2262 O
*2264 O
*2266 O

*D_NET *1 0.00523584
*CONN
*I *2:Y O *D _710
*I *3:B I *L 0
*I *4:D I *L 0
*I *5:B I *L 0
*I *6:B I *L 0
*I *7:B I *L 0
*I *8:B I *L 0
*I *9:B I *L 0
*I *10:B I *L 0
*I *11:B I *L 0
*I *12:B I *L 0
*I *13:B I *L 0
*I *14:D I *L 0
*I *15:D I *L 0
*CAP
1 1_1 0.00028584
2 1_2 0.00040128
3 1_3 0
4 1_4 0.00038112
5 1_5 2.688e-05
6 1_6 0.0001152
7 1_7 0.0004656
8 1_8 0
9 1_9 0.00039264
10 1_10 8.64e-05
11 1_11 0.00015456
12 1_12 0
13 1_13 0.0002928
14 1_14 0.0002448
15 1_15 0.00017544
16 1_16 0.00030384
17 1_17 0.0003864
18 1_18 0.000102
19 1_19 2.04e-05
20 1_20 0.0003312
21 1_21 0.00057072
22 1_22 2.04e-05
23 1_23 0.00027144
24 1_24 4.08e-05
25 1_25 0.00016608
*RES
1 *2:Y 1_1 3.40667
2 1_1 1_2 10.3467
3 1_2 1_3 0
4 1_3 *3:B 0
5 1_3 1_4 8.58667
6 1_4 1_5 0.746667
7 1_5 1_6 1.86667
8 1_6 *4:D 0
9 1_5 1_7 3.93333
10 1_7 1_8 0
11 1_8 *5:B 0
12 1_7 1_9 6.90667
13 1_9 1_10 0.56
14 1_10 *6:B 0
15 1_9 1_11 4.29333
16 1_11 1_12 0
17 1_12 *7:B 0
18 1_11 1_13 6.90667
19 1_13 *8:B 0
20 1_4 1_14 2.8
21 1_14 1_15 2.00667
22 1_15 *9:B 0
23 1_14 1_16 6.44
24 1_16 *10:B 0
25 1_1 1_17 10.7333
26 1_17 1_18 1.16667
27 1_18 1_19 0.233333
28 1_19 *11:B 0
29 1_19 1_20 3.36
30 1_20 *12:B 0
31 1_17 1_21 7.18667
32 1_21 1_22 0.233333
33 1_22 *13:B 0
34 1_22 1_23 3.87333
35 1_23 1_24 0.466667
36 1_24 *14:D 0
37 1_23 1_25 2.41333
38 1_25 *15:D 0
*END
*D_NET *16 0.00462168
*CONN
*I *17:Y O *D _698
*I *18:C I *L 0
*I *19:A I *L 0
*I *20:A I *L 0
*I *21:C I *L 0
*I *22:A I *L 0
*I *23:C I *L 0
*I *24:C I *L 0
*I *25:A I *L 0
*I *26:C I *L 0
*I *27:C I *L 0
*I *28:A I *L 0
*CAP
1 16_1 9.84e-05
2 16_2 0.0003528
3 16_3 0.000102
4 16_4 0.0004608
5 16_5 8.4e-06
6 16_6 0.00078072
7 16_7 5.76e-05
8 16_8 0.00026976
9 16_9 0.00038976
10 16_10 0.00020544
11 16_11 0
12 16_12 0.00013632
13 16_13 0.00030576
14 16_14 0.00014112
15 16_15 0.000204
16 16_16 2.04e-05
17 16_17 0.00033504
18 16_18 0.0002208
19 16_19 0
20 16_20 0.00024456
21 16_21 0.000288
*RES
1 *17:Y 16_1 0.84
2 16_1 16_2 5.13333
3 16_2 16_3 1.16667
4 16_3 *18:C 0
5 16_2 16_4 7.46667
6 16_4 *19:A 0
7 16_1 16_5 0.233333
8 16_5 16_6 10.6867
9 16_6 16_7 0.373333
10 16_7 *20:A 0
11 16_6 16_8 5.09333
12 16_8 *21:C 0
13 16_5 16_9 10.8267
14 16_9 16_10 1.70667
15 16_10 16_11 0
16 16_11 *22:A 0
17 16_10 16_12 1.78667
18 16_12 *23:C 0
19 16_9 16_13 8.49333
20 16_13 16_14 3.92
21 16_14 16_15 2.33333
22 16_15 16_16 0.233333
23 16_16 *24:C 0
24 16_16 16_17 3.54667
25 16_17 *25:A 0
26 16_14 16_18 1.53333
27 16_18 16_19 0
28 16_19 *26:C 0
29 16_19 16_20 3.12667
30 16_20 *27:C 0
31 16_13 16_21 2
32 16_21 *28:A 0
*END
*D_NET *29 0.00428784
*CONN
*I *30:Y O *D _707
*I *31:B I *L 0
*I *32:B I *L 0
*I *33:A I *L 0
*I *34:B I *L 0
*I *35:C I *L 0
*I *36:B I *L 0
*I *37:B I *L 0
*I *38:B I *L 0
*I *39:B I *L 0
*I *40:B I *L 0
*CAP
1 29_1 0.00036744
2 29_2 6.048e-05
3 29_3 0.00032064
4 29_4 0.00042336
5 29_5 0.00010776
6 29_6 0.000204
7 29_7 0.00028968
8 29_8 2.04e-05
9 29_9 0.000108
10 29_10 0.0003552
11 29_11 0.00039648
12 29_12 0.00028512
13 29_13 5.76e-05
14 29_14 0.0002448
15 29_15 2.04e-05
16 29_16 0.00014976
17 29_17 0.00044064
18 29_18 8.64e-05
19 29_19 0.00034968
*RES
1 *30:Y 29_1 3.74