*SPEF "IEEE 1481.1999"
*DESIGN "instruction_decoder"
*DATE "17:34:06 Monday June 08, 2020"
*VENDOR "unknown"
*PROGRAM "qrouter"
*VERSION "unknown"
*DESIGN_FLOW "qflow"
*DIVIDER /
*DELIMITER :
*BUS_DELIMITER <>
*T_UNIT 1 PS
*C_UNIT 1 FF
*R_UNIT 1 OHM
*L_UNIT 1 HENRY

*NAME_MAP
*1 enable_bF_buf4
*2 BUFX2_insert5
*3 _97_
*4 _106_
*5 _105_
*6 _54_
*7 _72_
*8 _55_
*9 _96_
*10 enable_bF_buf5
*11 BUFX2_insert4
*12 _61_
*13 _86_
*14 _94_
*15 _73_
*16 _109_
*17 _93_
*18 _108_
*19 enable
*20 BUFX2_insert7
*21 BUFX2_insert4
*22 BUFX2_insert6
*23 BUFX2_insert8
*24 BUFX2_insert5
*25 BUFX2_insert9
*26 enable_bF_buf0
*27 BUFX2_insert9
*28 _70_
*29 _84_
*30 _100_
*31 _99_
*32 _57_
*33 _58_
*34 enable_bF_buf1
*35 BUFX2_insert8
*36 _67_
*37 _80_
*38 _64_
*39 _82_
*40 _63_
*41 _66_
*42 enable_bF_buf2
*43 BUFX2_insert7
*44 _60_
*45 _78_
*46 _51_
*47 _102_
*48 _103_
*49 _52_
*50 enable_bF_buf3
*51 BUFX2_insert6
*52 _69_
*53 _90_
*54 _91_
*55 _88_
*56 _76_
*57 _75_
*58 clock_bF_buf2
*59 CLKBUF1_insert1
*60 _152_
*61 _132_
*62 _137_
*63 _147_
*64 _143_
*65 _149_
*66 clock_bF_buf3
*67 CLKBUF1_insert0
*68 _139_
*69 _142_
*70 _138_
*71 _151_
*72 _134_
*73 _145_
*74 clock_bF_buf0
*75 CLKBUF1_insert3
*76 _135_
*77 _148_
*78 _136_
*79 _140_
*80 _141_
*81 clock_bF_buf1
*82 CLKBUF1_insert2
*83 _144_
*84 _150_
*85 _153_
*86 _146_
*87 _133_
*88 clock
*89 CLKBUF1_insert2
*90 CLKBUF1_insert0
*91 CLKBUF1_insert1
*92 CLKBUF1_insert3
*93 _46_[1]
*94 _147_
*95 _101_
*96 _120_
*97 _46_[2]
*98 _148_
*99 _121_
*100 _104_
*101 _46_[3]
*102 _149_
*103 _122_
*104 _107_
*105 _44_
*106 _145_
*107 _110_
*108 _50_
*109 _45_[0]
*110 _137_
*111 _111_
*112 _53_
*113 _45_[1]
*114 _138_
*115 _56_
*116 _112_
*117 _45_[2]
*118 _139_
*119 _59_
*120 _113_
*121 _45_[3]
*122 _140_
*123 _114_
*124 _62_
*125 _45_[4]
*126 _141_
*127 _115_
*128 _65_
*129 _45_[5]
*130 _142_
*131 _116_
*132 _68_
*133 _45_[6]
*134 _143_
*135 _71_
*136 _117_
*137 _45_[7]
*138 _144_
*139 _74_
*140 _118_
*141 _46_[0]
*142 _146_
*143 _98_
*144 _119_
*145 _47_[0]
*146 _153_
*147 _123_
*148 _83_
*149 _47_[1]
*150 _132_
*151 _124_
*152 _85_
*153 _47_[2]
*154 _133_
*155 _125_
*156 _87_
*157 _48_[0]
*158 _134_
*159 _77_
*160 _126_
*161 _48_[1]
*162 _135_
*163 _127_
*164 _79_
*165 _48_[2]
*166 _136_
*167 _81_
*168 _128_
*169 _49_[0]
*170 _150_
*171 _89_
*172 _129_
*173 _49_[1]
*174 _151_
*175 _92_
*176 _130_
*177 _49_[2]
*178 _152_
*179 _131_
*180 _95_
*181 _27_
*182 _60_
*183 _78_
*184 _61_
*185 _29_
*186 _63_
*187 _64_
*188 _80_
*189 _31_
*190 _66_
*191 _82_
*192 _67_
*193 _33_
*194 _69_
*195 _70_
*196 _84_
*197 _35_
*198 _72_
*199 _73_
*200 _86_
*201 _37_
*202 _75_
*203 _88_
*204 _76_
*205 _12_
*206 _98_
*207 _100_
*208 _13_
*209 _99_
*210 _100_
*211 _2_[0]
*212 _100_
*213 _146_
*214 _14_
*215 _101_
*216 _103_
*217 instruct[13]
*218 _102_
*219 _15_
*220 _102_
*221 _103_
*222 _2_[1]
*223 _103_
*224 _147_
*225 _16_
*226 _104_
*227 _106_
*228 instruct[14]
*229 _105_
*230 _17_
*231 _105_
*232 _106_
*233 _2_[2]
*234 _106_
*235 _148_
*236 _18_
*237 _107_
*238 _109_
*239 instruct[15]
*240 _108_
*241 _19_
*242 _108_
*243 _109_
*244 _2_[3]
*245 _109_
*246 _149_
*247 flag
*248 _110_
*249 imm[0]
*250 _111_
*251 imm[1]
*252 _112_
*253 imm[2]
*254 _113_
*255 imm[3]
*256 _114_
*257 imm[4]
*258 _115_
*259 imm[5]
*260 _116_
*261 imm[6]
*262 _117_
*263 imm[7]
*264 _118_
*265 opcode[0]
*266 _119_
*267 opcode[1]
*268 _120_
*269 opcode[2]
*270 _121_
*271 opcode[3]
*272 _122_
*273 rAadrs[0]
*274 _123_
*275 rAadrs[1]
*276 _124_
*277 rAadrs[2]
*278 _125_
*279 rBadrs[0]
*280 _126_
*281 rBadrs[1]
*282 _127_
*283 rBadrs[2]
*284 _128_
*285 rDadrs[0]
*286 _129_
*287 rDadrs[1]
*288 _130_
*289 rDadrs[2]
*290 _131_
*291 _3_[1]
*292 _86_
*293 _132_
*294 _3_[2]
*295 _88_
*296 _133_
*297 _4_[0]
*298 _78_
*299 _134_
*300 _4_[1]
*301 _80_
*302 _135_
*303 _4_[2]
*304 _82_
*305 _136_
*306 _1_[0]
*307 _55_
*308 _137_
*309 _1_[1]
*310 _58_
*311 _138_
*312 _1_[2]
*313 _61_
*314 _139_
*315 _1_[3]
*316 _64_
*317 _140_
*318 _1_[4]
*319 _67_
*320 _141_
*321 _1_[5]
*322 _70_
*323 _142_
*324 _1_[6]
*325 _73_
*326 _143_
*327 _1_[7]
*328 _76_
*329 _144_
*330 _0_
*331 _52_
*332 _145_
*333 _5_[0]
*334 _91_
*335 _150_
*336 _5_[1]
*337 _94_
*338 _151_
*339 _5_[2]
*340 _97_
*341 _152_
*342 _3_[0]
*343 _84_
*344 _153_
*345 _20_
*346 _50_
*347 _52_
*348 instruct[8]
*349 _51_
*350 _21_
*351 _51_
*352 _52_
*353 _22_
*354 _53_
*355 _55_
*356 instruct[0]
*357 _54_
*358 _23_
*359 _54_
*360 _55_
*361 _24_
*362 _56_
*363 _58_
*364 instruct[1]
*365 _57_
*366 _25_
*367 _57_
*368 _58_
*369 _26_
*370 _59_
*371 _61_
*372 instruct[2]
*373 _60_
*374 _28_
*375 _62_
*376 _64_
*377 instruct[3]
*378 _63_
*379 _30_
*380 _65_
*381 _67_
*382 instruct[4]
*383 _66_
*384 _32_
*385 _68_
*386 _70_
*387 instruct[5]
*388 _69_
*389 _34_
*390 _71_
*391 _73_
*392 instruct[6]
*393 _72_
*394 _36_
*395 _74_
*396 _76_
*397 instruct[7]
*398 _75_
*399 _38_
*400 _77_
*401 _78_
*402 _39_
*403 _79_
*404 _80_
*405 _40_
*406 _81_
*407 _82_
*408 _41_
*409 _83_
*410 _84_
*411 _42_
*412 _85_
*413 _86_
*414 _43_
*415 _87_
*416 _88_
*417 _6_
*418 _89_
*419 _91_
*420 instruct[9]
*421 _90_
*422 _7_
*423 _90_
*424 _91_
*425 _8_
*426 _92_
*427 _94_
*428 instruct[10]
*429 _93_
*430 _9_
*431 _93_
*432 _94_
*433 _10_
*434 _95_
*435 _97_
*436 instruct[11]
*437 _96_
*438 _11_
*439 _96_
*440 _97_
*441 instruct[12]
*442 _99_

*PORTS
*19 I
*88 I
*217 I
*228 I
*239 I
*247 O
*249 O
*251 O
*253 O
*255 O
*257 O
*259 O
*261 O
*263 O
*265 O
*267 O
*269 O
*271 O
*273 O
*275 O
*277 O
*279 O
*281 O
*283 O
*285 O
*287 O
*289 O
*348 I
*356 I
*364 I
*372 I
*377 I
*382 I
*387 I
*392 I
*397 I
*420 I
*428 I
*436 I
*441 I

*D_NET *1 0.00085392
*CONN
*I *2:Y O *D BUFX2
*I *3:A I *L 0
*I *4:A I *L 0
*I *5:A I *L 0
*I *6:A I *L 0
*I *7:A I *L 0
*I *8:A I *L 0
*I *9:A I *L 0
*CAP
1 1_1 0.0002712
2 1_2 2.04e-05
3 1_3 0.0001716
4 1_4 2.688e-05
5 1_5 0
6 1_6 4.704e-05
7 1_7 0
8 1_8 2.688e-05
9 1_9 0
10 1_10 2.688e-05
11 1_11 4.032e-05
12 1_12 0.00019584
13 1_13 2.688e-05
*RES
1 *2:Y 1_1 4.2
2 1_1 1_2 0.233333
3 1_2 *3:A 0
4 1_2 1_3 2.1
5 1_3 1_4 0.746667
6 1_4 1_5 0
7 1_5 *4:A 0
8 1_4 1_6 1.30667
9 1_6 1_7 0
10 1_7 *5:A 0
11 1_6 1_8 0.746667
12 1_8 1_9 0
13 1_9 *6:A 0
14 1_8 1_10 0.746667
15 1_10 1_11 1.12
16 1_11 *7:A 0
17 1_10 1_12 2.24
18 1_12 *8:A 0
19 1_3 1_13 0.746667
20 1_13 *9:A 0
*END
*D_NET *10 0.00141264
*CONN
*I *11:Y O *D BUFX2
*I *12:A I *L 0
*I *13:A I *L 0
*I *14:A I *L 0
*I *15:A I *L 0
*I *16:A I *L 0
*I *17:A I *L 0
*I *18:A I *L 0
*CAP
1 10_1 8.4e-06
2 10_2 4.704e-05
3 10_3 0
4 10_4 0.00019008
5 10_5 6.048e-05
6 10_6 8.4e-06
7 10_7 0
8 10_8 0.00039408
9 10_9 8.16e-05
10 10_10 0.00018912
11 10_11 2.688e-05
12 10_12 0
13 10_13 0.00040656
*RES
1 *11:Y 10_1 0.233333
2 10_1 10_2 1.30667
3 10_2 10_3 0
4 10_3 *12:A 0
5 10_2 10_4 2.61333
6 10_4 *13:A 0
7 10_1 10_5 1.68
8 10_5 10_6 0.233333
9 10_6 10_7 0
10 10_7 *14:A 0
11 10_7 10_8 4.94667
12 10_8 10_9 0.933333
13 10_9 *15:A 0
14 10_8 10_10 3.92
15 10_10 *16:A 0
16 10_6 10_11 0.746667
17 10_11 10_12 0
18 10_12 *17:A 0
19 10_11 10_13 6.62667
20 10_13 *18:A 0
*END
*D_NET *19 0.00123216
*CONN
*P *19 O
*I *20:A I *L 0
*I *21:A I *L 0
*I *22:A I *L 0
*I *23:A I *L 0
*I *24:A I *L 0
*I *25:A I *L 0
*CAP
1 19_1 0.00032496
2 19_2 0
3 19_3 0.0001344
4 19_4 0
5 19_5 0.000168
6 19_6 7.392e-05
7 19_7 0
8 19_8 0.00029808
9 19_9 8.4e-06
10 19_10 0.000204
11 19_11 2.04e-05
*RES
1 *19 19_1 5.69333
2 19_1 19_2 0
3 19_2 *20:A 0
4 19_1 19_3 3.73333
5 19_3 19_4 0
6 19_4 *21:A 0
7 19_3 19_5 4.66667
8 19_5 19_6 2.05333
9 19_6 19_7 0
10 19_7 *22:A 0
11 19_6 19_8 4.94667
12 19_8 *23:A 0
13 19_5 19_9 0.233333
14 19_9 19_10 2.33333
15 19_10 *24:A 0
16 19_9 19_11 0.233333
17 19_11 *25:A 0
*END
*D_NET *26 0.00067248
*CONN
*I *27:Y O *D BUFX2
*I *28:A I *L 0
*I *29:A I *L 0
*I *30:A I *L 0
*I *31:A I *L 0
*I *32:A I *L 0
*I *33:A I *L 0
*CAP
1 26_1 0.000204
2 26_2 3.264e-05
3 26_3 5.76e-05
4 26_4 4.032e-05
5 26_5 0.00019008
6 26_6 0
7 26_7 4.704e-05
8 26_8 0
9 26_9 5.376e-05
10 26_10 0
11 26_11 4.704e-05
*RES
1 *27:Y 26_1 2.33333
2 26_1 26_2 0.373333
3 26_2 26_3 0.373333
4 26_3 *28:A 0
5 26_2 26_4 1.12
6 26_4 *29:A 0
7 26_1 26_5 2.61333
8 26_5 26_6 0
9 26_6 *30:A 0
10 26_5 26_7 1.30667
11 26_7 26_8 0
12 26_8 *31:A 0
13 26_7 26_9 1.49333
14 26_9 26_10 0
15 26_10 *32:A 0
16 26_9 26_11 1.30667
17 26_11 *33:A 0
*END
*D_NET *34 0.00061704
*CONN
*I *35:Y O *D BUFX2
*I *36:A I *L 0
*I *37:A I *L 0
*I *38:A I *L 0
*I *39:A I *L 0
*I *40:A I *L 0
*I *41:A I *L 0
*CAP
1 34_1 0.0001836
2 34_2 5.76e-05
3 34_3 2.04e-05
4 34_4 5.376e-05
5 34_5 0
6 34_6 0.0001632
7 34_7 2.04e-05
8 34_8 6.048e-05
9 34_9 5.76e-05
*RES
1 *35:Y 34_1 2.1
2 34_1 34_2 0.373333
3 34_2 *36:A 0
4 34_1 34_3 0.233333
5 34_3 *37:A 0
6 34_3 34_4 1.49333
7 34_4 34_5 0
8 34_5 *38:A 0
9 34_5 34_6 1.86667
10 34_6 34_7 0.233333
11 34_7 *39:A 0
12 34_7 34_8 1.68
13 34_8 *40:A 0
14 34_8 34_9 0.373333
15 34_9 *41:A 0
*END
*D_NET *42 0.00101544
*CONN
*I *43:Y O *D BUFX2
*I *44:A I *L 0
*I *45:A I *L 0
*I *46:B I *L 0
*I *47:A I *L 0
*I *48:A I *L 0
*I *49:A I *L 0
*CAP
1 42_1 0.0001428
2 42_2 5.76e-05
3 42_3 6.12e-05
4 42_4 3.36e-05
5 42_5 0
6 42_6 0.000204
7 42_7 6.12e-05
8 42_8 0.00022416
9 42_9 0.00023088
*RES
1 *43:Y 42_1 1.63333
2 42_1 42_2 0.373333
3 42_2 *44:A 0
4 42_1 42_3 0.7
5 42_3 *45:A 0
6 42_1 42_4 0.933333
7 42_4 42_5 0
8 42_5 *46:B 0
9 42_5 42_6 2.33333
10 42_6 42_7 0.7
11 42_7 *47:A 0
12 42_6 42_8 2.89333
13 42_8 *48:A 0
14 42_5 42_9 3.08
15 42_9 *49:A 0
*END
*D_NET *50 0.00114144
*CONN
*I *51:Y O *D BUFX2
*I *52:A I *L 0
*I *53:A I *L 0
*I *54:A I *L 0
*I *55:A I *L 0
*I *56:A I *L 0
*I *57:A I *L 0
*CAP
1 50_1 0.0004044
2 50_2 3.264e-05
3 50_3 7.392e-05
4 50_4 0
5 50_5 6.048e-05
6 50_6 0
7 50_7 0.00021696
8 50_8 2.04e-05
9 50_9 0.0002856
10 50_10 4.704e-05
*RES
1 *51:Y 50_1 4.34
2 50_1 50_2 0.373333
3 50_2 *52:A 0
4 50_1 50_3 2.05333
5 50_3 50_4 0
6 50_4 *53:A 0
7 50_3 50_5 1.68
8 50_5 50_6 0
9 50_6 *54:A 0
10 50_5 50_7 3.36
11 50_7 50_8 0.233333
12 50_8 *55:A 0
13 50_8 50_9 3.26667
14 50_9 *56:A 0
15 50_8 50_10 1.30667
16 50_10 *57:A 0
*END
*D_NET *58 0.00130272
*CONN
*I *59:Y O *D CLKBUF1
*I *60:CLK I *L 0
*I *61:CLK I *L 0
*I *62:CLK I *L 0
*I *63:CLK I *L 0
*I *64:CLK I *L 0
*I *65:CLK I *L 0
*CAP
1 58_1 2.04e-05
2 58_2 0.0001632
3 58_3 0.0001692
4 58_4 2.04e-05
5 58_5 0.0002856
6 58_6 0.00017472
7 58_7 0.0002856
8 58_8 2.04e-05
9 58_9 0.0001632
*RES
1 *59:Y 58_1 0.233333
2 58_1 58_2 1.86667
3 58_2 *60:CLK 0
4 58_1 58_3 3.03333
5 58_3 *61:CLK 0
6 58_3 58_4 0.233333
7 58_4 58_5 3.26667
8 58_5 *62:CLK 0
9 58_4 58_6 4.85333
10 58_6 *63:CLK 0
11 58_6 58_7 3.26667
12 58_7 58_8 0.233333
13 58_8 *64:CLK 0
14 58_8 58_9 1.86667
15 58_9 *65:CLK 0
*END
*D_NET *66 0.00111912
*CONN
*I *67:Y O *D CLKBUF1
*I *68:CLK I *L 0
*I *69:CLK I *L 0
*I *70:CLK I *L 0
*I *71:CLK I *L 0
*I *72:CLK I *L 0
*I *73:CLK I *L 0
*CAP
1 66_1 6.048e-05
2 66_2 0
3 66_3 0.0002856
4 66_4 2.04e-05
5 66_5 6.72e-05
6 66_6 2.04e-05
7 66_7 0.000408
8 66_8 9.408e-05
9 66_9 0.00016296
*RES
1 *67:Y 66_1 1.68
2 66_1 66_2 0
3 66_2 *68:CLK 0
4 66_2 66_3 3.26667
5 66_3 66_4 0.233333
6 66_4 *69:CLK 0
7 66_4 66_5 1.86667
8 66_5 *70:CLK 0
9 66_5 66_6 0.233333
10 66_6 66_7 4.66667
11 66_7 *71:CLK 0
12 66_6 66_8 2.61333
13 66_8 *72:CLK 0
14 66_8 66_9 2.19333
15 66_9 *73:CLK 0
*END
*D_NET *74 0.00114528
*CONN
*I *75:Y O *D CLKBUF1
*I *76:CLK I *L 0
*I *77:CLK I *L 0
*I *78:CLK I *L 0
*I *79:CLK I *L 0
*I *80:CLK I *L 0
*CAP
1 74_1 0.0001632
2 74_2 2.04e-05
3 74_3 0.00023064
4 74_4 0.0001068
5 74_5 0.0001428
6 74_6 0.00017544
7 74_7 4.08e-05
8 74_8 0.0002652
*RES
1 *75:Y 74_1 1.86667
2 74_1 74_2 0.233333
3 74_2 *76:CLK 0
4 74_2 74_3 3.40667
5 74_3 *77:CLK 0
6 74_2 74_4 0.793333
7 74_4 74_5 1.63333
8 74_5 *78:CLK 0
9 74_4 74_6 3.87333
10 74_6 74_7 0.466667
11 74_7 *79:CLK 0
12 74_6 74_8 3.03333
13 74_8 *80:CLK 0
*END
*D_NET *81 0.00075312
*CONN
*I *82:Y O *D CLKBUF1
*I *83:CLK I *L 0
*I *84:CLK I *L 0
*I *85:CLK I *L 0
*I *86:CLK I *L 0
*I *87:CLK I *L 0
*CAP
1 81_1 2.016e-05
2 81_2 0.0002652
3 81_3 2.04e-05
4 81_4 9.408e-05
5 81_5 0.00019008
6 81_6 0.0001632
*RES
1 *82:Y 81_1 0.56
2 81_1 *83:CLK 0
3 81_1 81_2 3.03333
4 81_2 81_3 0.233333
5 81_3 *84:CLK 0
6 81_3 81_4 2.61333
7 81_4 *85:CLK 0
8 81_4 81_5 2.61333
9 81_5 *86:CLK 0
10 81_3 81_6 1.86667
11 81_6 *87:CLK 0
*END
*D_NET *88 0.00069216
*CONN
*P *88 O
*I *89:A I *L 0
*I *90:A I *L 0
*I *91:A I *L 0
*I *92:A I *L 0
*CAP
1 88_1 0.00023184
2 88_2 0.00017544
3 88_3 2.04e-05
4 88_4 6.048e-05
5 88_5 0
6 88_6 0.0001632
7 88_7 4.08e-05
*RES
1 *88 88_1 6.44
2 88_1 88_2 2.00667
3 88_2 88_3 0.233333
4 88_3 *89:A 0
5 88_3 88_4 1.68
6 88_4 88_5 0
7 88_5 *90:A 0
8 88_5 88_6 1.86667
9 88_6 *91:A 0
10 88_1 88_7 0.466667
11 88_7 *92:A 0
*END
*D_NET *93 0.00041736
*CONN
*I *94:Q O *D _147
*I *95:A I *L 0
*I *96:A I *L 0
*CAP
1 93_1 0.0001596
2 93_2 2.04e-05
3 93_3 0.00023736
*RES
1 *94:Q 93_1 1.54
2 93_1 93_2 0.233333
3 93_2 *95:A 0
4 93_2 93_3 3.59333
5 93_3 *96:A 0
*END
*D_NET *97 0.00018288
*CONN
*I *98:Q O *D _148
*I *99:A I *L 0
*I *100:A I *L 0
*CAP
1 97_1 9.48e-05
2 97_2 0
3 97_3 8.808e-05
*RES
1 *98:Q 97_1 1.63333
2 97_1 97_2 0
3 97_2 *99:A 0
4 97_1 97_3 1.44667
5 97_3 *100:A 0
*END
*D_NET *101 0.00097968
*CONN
*I *102:Q O *D _149
*I *103:A I *L 0
*I *104:A I *L 0
*CAP
1 101_1 5.76e-05
2 101_2 0.00092208
*RES
1 *102:Q 101_1 0.373333
2 101_1 *103:A 0
3 101_1 101_2 10.5467
4 101_2 *104:A 0
*END
*D_NET *105 0.00079368
*CONN
*I *106:Q O *D _145
*I *107:A I *L 0
*I *108:A I *L 0
*CAP
1 105_1 5.376e-05
2 105_2 0.00010152
3 105_3 0.0006384
*RES
1 *106:Q 105_1 1.49333
2 105_1 105_2 1.82
3 105_2 *107:A 0
4 105_1 105_3 8.4
5 105_3 *108:A 0
*END
*D_NET *109 0.00029712
*CONN
*I *110:Q O *D _137
*I *111:A I *L 0
*I *112:A I *L 0
*CAP
1 109_1 3.264e-05
2 109_2 0.0001632
3 109_3 0.00010128
*RES
1 *110:Q 109_1 0.373333
2 109_1 109_2 1.86667
3 109_2 *111:A 0
4 109_1 109_3 2.14667
5 109_3 *112:A 0
*END
*D_NET *113 0.0003564
*CONN
*I *114:Q O *D _138
*I *115:A I *L 0
*I *116:A I *L 0
*CAP
1 113_1 0.000102
2 113_2 2.04e-05
3 113_3 0.000234
*RES
1 *114:Q 113_1 1.16667
2 113_1 113_2 0.233333
3 113_2 *115:A 0
4 113_2 113_3 1.82
5 113_3 *116:A 0
*END
*D_NET *117 0.00093672
*CONN
*I *118:Q O *D _139
*I *119:A I *L 0
*I *120:A I *L 0
*CAP
1 117_1 0.0001596
2 117_2 2.04e-05
3 117_3 0.00075672
*RES
1 *118:Q 117_1 1.54
2 117_1 117_2 0.233333
3 117_2 *119:A 0
4 117_2 117_3 10.1267
5 117_3 *120:A 0
*END
*D_NET *121 0.00028608
*CONN
*I *122:Q O *D _140
*I *123:A I *L 0
*I *124:A I *L 0
*CAP
1 121_1 2.016e-05
2 121_2 0.0001512
3 121_3 0.00011472
*RES
1 *122:Q 121_1 0.56
2 121_1 121_2 1.86667
3 121_2 *123:A 0
4 121_1 121_3 2.52
5 121_3 *124:A 0
*END
*D_NET *125 0.00028992
*CONN
*I *126:Q O *D _141
*I *127:A I *L 0
*I *128:A I *L 0
*CAP
1 125_1 9.384e-05
2 125_2 2.04e-05
3 125_3 0.00017568
*RES
1 *126:Q 125_1 1.07333
2 125_1 125_2 0.233333
3 125_2 *127:A 0
4 125_2 125_3 3.54667
5 125_3 *128:A 0
*END
*D_NET *129 0.00033072
*CONN
*I *130:Q O *D _142
*I *131:A I *L 0
*I *132:A I *L 0
*CAP
1 129_1 2.04e-05
2 129_2 0.00017544
3 129_3 0.00013488
*RES
1 *130:Q 129_1 0.233333
2 129_1 129_2 2.00667
3 129_2 *131:A 0
4 129_1 129_3 3.08
5 129_3 *132:A 0
*END
*D_NET *133 0.00041352
*CONN
*I *134:Q O *D _143
*I *135:A I *L 0
*I *136:A I *L 0
*CAP
1 133_1 0.00023016
2 133_2 0
3 133_3 0.00018336
*RES
1 *134:Q 133_1 4.06
2 133_1 133_2 0
3 133_2 *135:A 0
4 133_2 133_3 2.42667
5 133_3 *136:A 0
*END
*D_NET *137 0.00022704
*CONN
*I *138:Q O *D _144
*I *139:A I *L 0
*I *140:A I *L 0
*CAP
1 137_1 8.784e-05
2 137_2 2.04e-05
3 137_3 0.0001188
*RES
1 *138:Q 137_1 1.77333
2 137_1 137_2 0.233333
3 137_2 *139:A 0
4 137_2 137_3 1.07333
5 137_3 *140:A 0
*END
*D_NET *141 0.00031848
*CONN
*I *142:Q O *D _146
*I *143:A I *L 0
*I *144:A I *L 0
*CAP
1 141_1 0.0001188
2 141_2 6.12e-05
3 141_3 0.00013848
*RES
1 *142:Q 141_1 1.07333
2 141_1 141_2 0.7
3 141_2 *143:A 0
4 141_1 141_3 2.28667
5 141_3 *144:A 0
*END
*D_NET *145 0.00043008
*CONN
*I *146:Q O *D _153
*I *147:A I *L 0
*I *148:A I *L 0
*CAP
1 145_1 2.016e-05
2 145_2 0.0002952
3 145_3 0.00011472
*RES
1 *146:Q 145_1 0.56
2 145_1 145_2 2.8
3 145_2 *147:A 0
4 145_1 145_3 2.52
5 145_3 *148:A 0
*END
*D_NET *149 0.00028608
*CONN
*I *150:Q O *D _132
*I *151:A I *L 0
*I *152:A I *L 0
*CAP
1 149_1 2.016e-05
2 149_2 0.0001512
3 149_3 0.00011472
*RES
1 *150:Q 149_1 0.56
2 149_1 149_2 1.86667
3 149_2 *151:A 0
4 149_1 149_3 2.52
5 149_3 *152:A 0
*END
*D_NET *153 0.00031824
*CONN
*I *154:Q O *D _133
*I *155:A I *L 0
*I *156:A I *L 0
*CAP
1 153_1 2.04e-05
2 153_2 9.384e-05
3 153_3 0.000204
*RES
1 *154:Q 153_1 0.233333
2 153_1 153_2 1.07333
3 153_2 *155:A 0
4 153_1 153_3 2.33333
5 153_3 *156:A 0
*END
*D_NET *157 0.0003528
*CONN
*I *158:Q O *D _134
*I *159:A I *L 0
*I *160:A I *L 0
*CAP
1 157_1 9.36e-05
2 157_2 0.0001284
3 157_3 0.0001308
*RES
1 *158:Q 157_1 1.4
2 157_1 157_2 2.56667
3 157_2 *159:A 0
4 157_1 157_3 1.63333
5 157_3 *160:A 0
*END
*D_NET *161 0.00031296
*CONN
*I *162:Q O *D _135
*I *163:A I *L 0
*I *164:A I *L 0
*CAP
1 161_1 4.032e-05
2 161_2 0.0001512
3 161_3 0.00012144
*RES
1 *162:Q 161_1 1.12
2 161_1 161_2 1.86667
3 161_2 *163:A 0
4 161_1 161_3 2.70667
5 161_3 *164:A 0
*END
*D_NET *165 0.00024744
*CONN
*I *166:Q O *D _136
*I *167:A I *L 0
*I *168:A I *L 0
*CAP
1 165_1 0.00010824
2 165_2 6.12e-05
3 165_3 7.8e-05
*RES
1 *166:Q 165_1 2.00667
2 165_1 165_2 0.7
3 165_2 *167:A 0
4 165_1 165_3 0.606667
5 165_3 *168:A 0
*END
*D_NET *169 0.0003888
*CONN
*I *170:Q O *D _150
*I *171:A I *L 0
*I *172:A I *L 0
*CAP
1 169_1 0.000102
2 169_2 0.0002868
*RES
1 *170:Q 169_1 1.16667
2 169_1 *171:A 0
3 169_1 169_2 2.56667
4 169_2 *172:A 0
*END
*D_NET *173 0.00047328
*CONN
*I *174:Q O *D _151
*I *175:A I *L 0
*I *176:A I *L 0
*CAP
1 173_1 0.000246
2 173_2 2.04e-05
3 173_3 0.00020688
*RES
1 *174:Q 173_1 2.1
2 173_1 173_2 0.233333
3 173_2 *175:A 0
4 173_2 173_3 2.52
5 173_3 *176:A 0
*END
*D_NET *177 0.00033864
*CONN
*I *178:Q O *D _152
*I *179:A I *L 0
*I *180:A I *L 0
*CAP
1 177_1 4.08e-05
2 177_2 0.00014928
3 177_3 0.00014856
*RES
1 *178:Q 177_1 0.466667
2 177_1 177_2 2.14667
3 177_2 *179:A 0
4 177_1 177_3 3.12667
5 177_3 *180:A 0
*END
*D_NET *181 0.00046584
*CONN
*I *182:Y O *D _60
*I *183:C I *L 0
*I *184:C I *L 0
*CAP
1 181_1 2.04e-05
2 181_2 0.00017544
3 181_3 0.00027
*RES
1 *182:Y 181_1 0.233333
2 181_1 181_2 2.00667
3 181_2 *183:C 0
4 181_1 181_3 5.83333
5 181_3 *184:C 0
*END
*D_NET *185 0.0003084
*CONN
*I *186:Y O *D _63
*I *187:C I *L 0
*I *188:C I *L 0
*CAP
1 185_1 0.0002508
2 185_2 5.76e-05
*RES
1 *186:Y 185_1 3.96667
2 185_1 *187:C 0
3 185_1 185_2 0.373333
4 185_2 *188:C 0
*END
*D_NET *189 0.0003888
*CONN
*I *190:Y O *D _66
*I *191:C I *L 0
*I *192:C I *L 0
*CAP
1 189_1 0.00016032
2 189_2 1.344e-05
3 189_3 0.00021504
*RES
1 *190:Y 189_1 2.61333
2 189_1 189_2 0.373333
3 189_2 *191:C 0
4 189_1 189_3 1.77333
5 189_3 *192:C 0
*END
*D_NET *193 0.00029136
*CONN
*I *194:Y O *D _69
*I *195:C I *L 0
*I *196:C I *L 0
*CAP
1 193_1 0.00023736
2 193_2 2.04e-05
3 193_3 3.36e-05
*RES
1 *194:Y 193_1 3.59333
2 193_1 193_2 0.233333
3 193_2 *195:C 0
4 193_2 193_3 0.933333
5 193_3 *196:C 0
*END
*D_NET *197 0.00063144
*CONN
*I *198:Y O *D _72
*I *199:C I *L 0
*I *200:C I *L 0
*CAP
1 197_1 9e-05
2 197_2 0.00012216
3 197_3 0.00041928
*RES
1 *198:Y 197_1 1.16667
2 197_1 197_2 1.72667
3 197_2 *199:C 0
4 197_1 197_3 6.11333
5 197_3 *200:C 0
*END
*D_NET *201 0.00031056
*CONN
*I *202:Y O *D _75
*I *203:C I *L 0
*I *204:C I *L 0
*CAP
1 201_1 0.00010656
2 201_2 0
3 201_3 0.000204
*RES
1 *202:Y 201_1 1.12
2 201_1 201_2 0
3 201_2 *203:C 0
4 201_2 201_3 2.33333
5 201_3 *204:C 0
*END
*D_NET *205 8.64e-05
*CONN
*I *206:Y O *D _98
*I *207:B I *L 0
*CAP
1 205_1 8.64e-05
*RES
1 *206:Y 205_1 0.56
2 205_1 *207:B 0
*END
*D_NET *208 0.0001584
*CONN
*I *209:Y O *D _99
*I *210:C I *L 0
*CAP
1 208_1 0.0001584
*RES
1 *209:Y 208_1 1.02667
2 208_1 *210:C 0
*END
*D_NET *211 0.00018936
*CONN
*I *212:Y O *D _100
*I *213:D I *L 0
*CAP
1 211_1 0.00018936
*RES
1 *212:Y 211_1 3.59333
2 211_1 *213:D 0
*END
*D_NET *214 8.64e-05
*CONN
*I *215:Y O *D _101
*I *216:B I *L 0
*CAP
1 214_1 8.64e-05
*RES
1 *215:Y 214_1 0.56
2 214_1 *216:B 0
*END
*D_NET *217 8.4e-05
*CONN
*P *217 O
*I *218:B I *L 0
*CAP
1 217_1 8.4e-05
*RES
1 *217 217_1 2.33333
2 217_1 *218:B 0
*END
*D_NET *219 0.0001968
*CONN
*I *220:Y O *D _102
*I *221:C I *L 0
*CAP
1 219_1 0.0001968
*RES
1 *220:Y 219_1 2.8
2 219_1 *221:C 0
*END
*D_NET *222 0.00013824
*CONN
*I *223:Y O *D _103
*I *224:D I *L 0
*CAP
1 222_1 0.00013824
*RES
1 *223:Y 222_1 2.61333
2 222_1 *224:D 0
*END
*D_NET *225 8.64e-05
*CONN
*I *226:Y O *D _104
*I *227:B I *L 0
*CAP
1 225_1 8.64e-05
*RES
1 *226:Y 225_1 0.56
2 225_1 *227:B 0
*END
*D_NET *228 0.00017544
*CONN
*P *228 O
*I *229:B I *L 0
*CAP
1 228_1 0.00017544
*RES
1 *228 228_1 2.00667
2 228_1 *229:B 0
*END
*D_NET *230 0.0001584
*CONN
*I *231:Y O *D _105
*I *232:C I *L 0
*CAP
1 230_1 0.0001584
*RES
1 *231:Y 230_1 1.02667
2 230_1 *232:C 0
*END
*D_NET *233 0.00016176
*CONN
*I *234:Y O *D _106
*I *235:D I *L 0
*CAP
1 233_1 0.00016176
*RES
1 *234:Y 233_1 3.82667
2 233_1 *235:D 0
*END
*D_NET *236 0.0003444
*CONN
*I *237:Y O *D _107
*I *238:B I *L 0
*CAP
1 236_1 0.0003444
*RES
1 *237:Y 236_1 3.36667
2 236_1 *238:B 0
*END
*D_NET *239 7.776e-05
*CONN
*P *239 O
*I *240:B I *L 0
*CAP
1 239_1 7.776e-05
*RES
1 *239 239_1 0.933333
2 239_1 *240:B 0
*END
*D_NET *241 0.0005508
*CONN
*I *242:Y O *D _108
*I *243:C I *L 0
*CAP
1 241_1 0.0005508
*RES
1 *242:Y 241_1 6.3
2 241_1 *243:C 0
*END
*D_NET *244 0.00024384
*CONN
*I *245:Y O *D _109
*I *246:D I *L 0
*CAP
1 244_1 0.00024384
*RES
1 *245:Y 244_1 4.10667
2 244_1 *246:D 0
*END
*D_NET *247 0.00011424
*CONN
*I *248:Y O *D _110
*P *247 I
*CAP
1 247_1 0.00011424
*RES
1 *248:Y 247_1 1.30667
2 247_1 *247 0
*END
*D_NET *249 0.00013464
*CONN
*I *250:Y O *D _111
*P *249 I
*CAP
1 249_1 0.00013464
*RES
1 *250:Y 249_1 1.54
2 249_1 *249 0
*END
*D_NET *251 8.16e-05
*CONN
*I *252:Y O *D _112
*P *251 I
*CAP
1 251_1 8.16e-05
*RES
1 *252:Y 251_1 0.933333
2 251_1 *251 0
*END
*D_NET *253 0.00013464
*CONN
*I *254:Y O *D _113
*P *253 I
*CAP
1 253_1 0.00013464
*RES
1 *254:Y 253_1 1.54
2 253_1 *253 0
*END
*D_NET *255 6.768e-05
*CONN
*I *256:Y O *D _114
*P *255 I
*CAP
1 255_1 6.768e-05
*RES
1 *256:Y 255_1 1.21333
2 255_1 *255 0
*END
*D_NET *257 6.768e-05
*CONN
*I *258:Y O *D _115
*P *257 I
*CAP
1 257_1 6.768e-05
*RES
1 *258:Y 257_1 1.21333
2 257_1 *257 0
*END
*D_NET *259 0.00011424
*CONN
*I *260:Y O *D _116
*P *259 I
*CAP
1 259_1 0.00011424
*RES
1 *260:Y 259_1 1.30667
2 259_1 *259 0
*END
*D_NET *261 0.00013464
*CONN
*I *262:Y O *D _117
*P *261 I
*CAP
1 261_1 0.00013464
*RES
1 *262:Y 261_1 1.54
2 261_1 *261 0
*END
*D_NET *263 6.768e-05
*CONN
*I *264:Y O *D _118
*P *263 I
*CAP
1 263_1 6.768e-05
*RES
1 *264:Y 263_1 1.21333
2 263_1 *263 0
*END
*D_NET *265 0.00011424
*CONN
*I *266:Y O *D _119
*P *265 I
*CAP
1 265_1 0.00011424
*RES
1 *266:Y 265_1 1.30667
2 265_1 *265 0
*END
*D_NET *267 0.00010152
*CONN
*I *268:Y O *D _120
*P *267 I
*CAP
1 267_1 0.00010152
*RES
1 *268:Y 267_1 1.82
2 267_1 *267 0
*END
*D_NET *269 0.00013464
*CONN
*I *270:Y O *D _121
*P *269 I
*CAP
1 269_1 0.00013464
*RES
1 *270:Y 269_1 1.54
2 269_1 *269 0
*END
*D_NET *271 0.00013464
*CONN
*I *272:Y O *D _122
*P *271 I
*CAP
1 271_1 0.00013464
*RES
1 *272:Y 271_1 1.54
2 271_1 *271 0
*END
*D_NET *273 8.16e-05
*CONN
*I *274:Y O *D _123
*P *273 I
*CAP
1 273_1 8.16e-05
*RES
1 *274:Y 273_1 0.933333
2 273_1 *273 0
*END
*D_NET *275 0.00054264
*CONN
*I *276:Y O *D _124
*P *275 I
*CAP
1 275_1 0.00054264
*RES
1 *276:Y 275_1 6.20667
2 275_1 *275 0
*END
*D_NET *277 6.768e-05
*CONN
*I *278:Y O *D _125
*P *277 I
*CAP
1 277_1 6.768e-05
*RES
1 *278:Y 277_1 1.21333
2 277_1 *277 0
*END
*D_NET *279 0.00011424
*CONN
*I *280:Y O *D _126
*P *279 I
*CAP
1 279_1 0.00011424
*RES
1 *280:Y 279_1 1.30667
2 279_1 *279 0
*END
*D_NET *281 0.00013464
*CONN
*I *282:Y O *D _127
*P *281 I
*CAP
1 281_1 0.00013464
*RES
1 *282:Y 281_1 1.54
2 281_1 *281 0
*END
*D_NET *283 0.00013464
*CONN
*I *284:Y O *D _128
*P *283 I
*CAP
1 283_1 0.00013464
*RES
1 *284:Y 283_1 1.54
2 283_1 *283 0
*END
*D_NET *285 0.00025824
*CONN
*I *286:Y O *D _129
*P *285 I
*CAP
1 285_1 0.00025824
*RES
1 *286:Y 285_1 2.24
2 285_1 *285 0
*END
*D_NET *287 0.00022296
*CONN
*I *288:Y O *D _130
*P *287 I
*CAP
1 287_1 0.00022296
*RES
1 *288:Y 287_1 4.52667
2 287_1 *287 0
*END
*D_NET *289 0.00013464
*CONN
*I *290:Y O *D _131
*P *289 I
*CAP
1 289_1 0.00013464
*RES
1 *290:Y 289_1 1.54
2 289_1 *289 0
*END
*D_NET *291 6.048e-05
*CONN
*I *292:Y O *D _86
*I *293:D I *L 0
*CAP
1 291_1 6.048e-05
*RES
1 *292:Y 291_1 1.68
2 291_1 *293:D 0
*END
*D_NET *294 0.000234
*CONN
*I *295:Y O *D _88
*I *296:D I *L 0
*CAP
1 294_1 0.000234
*RES
1 *295:Y 294_1 2.94
2 294_1 *296:D 0
*END
*D_NET *297 6.048e-05
*CONN
*I *298:Y O *D _78
*I *299:D I *L 0
*CAP
1 297_1 6.048e-05
*RES
1 *298:Y 297_1 1.68
2 297_1 *299:D 0
*END
*D_NET *300 0.00016896
*CONN
*I *301:Y O *D _80
*I *302:D I *L 0
*CAP
1 300_1 0.00016896
*RES
1 *301:Y 300_1 3.36
2 300_1 *302:D 0
*END
*D_NET *303 0.00017424
*CONN
*I *304:Y O *D _82
*I *305:D I *L 0
*CAP
1 303_1 0.00017424
*RES
1 *304:Y 303_1 2.33333
2 303_1 *305:D 0
*END
*D_NET *306 0.00014016
*CONN
*I *307:Y O *D _55
*I *308:D I *L 0
*CAP
1 306_1 0.00014016
*RES
1 *307:Y 306_1 2.05333
2 306_1 *308:D 0
*END
*D_NET *309 0.0002292
*CONN
*I *310:Y O *D _58
*I *311:D I *L 0
*CAP
1 309_1 0.0002292
*RES
1 *310:Y 309_1 2.19333
2 309_1 *311:D 0
*END
*D_NET *312 0.00022824
*CONN
*I *313:Y O *D _61
*I *314:D I *L 0
*CAP
1 312_1 0.00022824
*RES
1 *313:Y 312_1 3.5
2 312_1 *314:D 0
*END
*D_NET *315 0.00014208
*CONN
*I *316:Y O *D _64
*I *317:D I *L 0
*CAP
1 315_1 0.00014208
*RES
1 *316:Y 315_1 2.61333
2 315_1 *317:D 0
*END
*D_NET *318 5.376e-05
*CONN
*I *319:Y O *D _67
*I *320:D I *L 0
*CAP
1 318_1 5.376e-05
*RES
1 *319:Y 318_1 1.49333
2 318_1 *320:D 0
*END
*D_NET *321 6.048e-05
*CONN
*I *322:Y O *D _70
*I *323:D I *L 0
*CAP
1 321_1 6.048e-05
*RES
1 *322:Y 321_1 1.68
2 321_1 *323:D 0
*END
*D_NET *324 6.048e-05
*CONN
*I *325:Y O *D _73
*I *326:D I *L 0
*CAP
1 324_1 6.048e-05
*RES
1 *325:Y 324_1 1.68
2 324_1 *326:D 0
*END
*D_NET *327 0.00014688
*CONN
*I *328:Y O *D _76
*I *329:D I *L 0
*CAP
1 327_1 0.00014688
*RES
1 *328:Y 327_1 2.24
2 327_1 *329:D 0
*END
*D_NET *330 0.00014688
*CONN
*I *331:Y O *D _52
*I *332:D I *L 0
*CAP
1 330_1 0.00014688
*RES
1 *331:Y 330_1 2.24
2 330_1 *332:D 0
*END
*D_NET *333 0.00025608
*CONN
*I *334:Y O *D _91
*I *335:D I *L 0
*CAP
1 333_1 0.00025608
*RES
1 *334:Y 333_1 2.94
2 333_1 *335:D 0
*END
*D_NET *336 0.00037704
*CONN
*I *337:Y O *D _94
*I *338:D I *L 0
*CAP
1 336_1 0.00037704
*RES
1 *337:Y 336_1 3.31333
2 336_1 *338:D 0
*END
*D_NET *339 5.376e-05
*CONN
*I *340:Y O *D _97
*I *341:D I *L 0
*CAP
1 339_1 5.376e-05
*RES
1 *340:Y 339_1 1.49333
2 339_1 *341:D 0
*END
*D_NET *342 9.456e-05
*CONN
*I *343:Y O *D _84
*I *344:D I *L 0
*CAP
1 342_1 9.456e-05
*RES
1 *343:Y 342_1 1.96
2 342_1 *344:D 0
*END
*D_NET *345 0.00048552
*CONN
*I *346:Y O *D _50
*I *347:B I *L 0
*CAP
1 345_1 0.00048552
*RES
1 *346:Y 345_1 5.55333
2 345_1 *347:B 0
*END
*D_NET *348 6.048e-05
*CONN
*P *348 O
*I *349:A I *L 0
*CAP
1 348_1 6.048e-05
*RES
1 *348 348_1 1.68
2 348_1 *349:A 0
*END
*D_NET *350 0.00020352
*CONN
*I *351:Y O *D _51
*I *352:C I *L 0
*CAP
1 350_1 0.00020352
*RES
1 *351:Y 350_1 2.98667
2 350_1 *352:C 0
*END
*D_NET *353 0.0003312
*CONN
*I *354:Y O *D _53
*I *355:B I *L 0
*CAP
1 353_1 0.0003312
*RES
1 *354:Y 353_1 2.14667
2 353_1 *355:B 0
*END
*D_NET *356 0.00017544
*CONN
*P *356 O
*I *357:B I *L 0
*CAP
1 356_1 0.00017544
*RES
1 *356 356_1 2.00667
2 356_1 *357:B 0
*END
*D_NET *358 0.00018336
*CONN
*I *359:Y O *D _54
*I *360:C I *L 0
*CAP
1 358_1 0.00018336
*RES
1 *359:Y 358_1 2.42667
2 358_1 *360:C 0
*END
*D_NET *361 8.64e-05
*CONN
*I *362:Y O *D _56
*I *363:B I *L 0
*CAP
1 361_1 8.64e-05
*RES
1 *362:Y 361_1 0.56
2 361_1 *363:B 0
*END
*D_NET *364 0.00015504
*CONN
*P *364 O
*I *365:B I *L 0
*CAP
1 364_1 0.00015504
*RES
1 *364 364_1 1.77333
2 364_1 *365:B 0
*END
*D_NET *366 0.0001584
*CONN
*I *367:Y O *D _57
*I *368:C I *L 0
*CAP
1 366_1 0.0001584
*RES
1 *367:Y 366_1 1.02667
2 366_1 *368:C 0
*END
*D_NET *369 8.64e-05
*CONN
*I *370:Y O *D _59
*I *371:B I *L 0
*CAP
1 369_1 8.64e-05
*RES
1 *370:Y 369_1 0.56
2 369_1 *371:B 0
*END
*D_NET *372 0.00024816
*CONN
*P *372 O
*I *373:B I *L 0
*CAP
1 372_1 0.00024816
*RES
1 *372 372_1 4.09333
2 372_1 *373:B 0
*END
*D_NET *374 8.64e-05
*CONN
*I *375:Y O *D _62
*I *376:B I *L 0
*CAP
1 374_1 8.64e-05
*RES
1 *375:Y 374_1 0.56
2 374_1 *376:B 0
*END
*D_NET *377 0.00017544
*CONN
*P *377 O
*I *378:B I *L 0
*CAP
1 377_1 0.00017544
*RES
1 *377 377_1 2.00667
2 377_1 *378:B 0
*END
*D_NET *379 6.768e-05
*CONN
*I *380:Y O *D _65
*I *381:B I *L 0
*CAP
1 379_1 6.768e-05
*RES
1 *380:Y 379_1 1.21333
2 379_1 *381:B 0
*END
*D_NET *382 4.704e-05
*CONN
*P *382 O
*I *383:B I *L 0
*CAP
1 382_1 4.704e-05
*RES
1 *382 382_1 1.30667
2 382_1 *383:B 0
*END
*D_NET *384 0.0001152
*CONN
*I *385:Y O *D _68
*I *386:B I *L 0
*CAP
1 384_1 0.0001152
*RES
1 *385:Y 384_1 0.746667
2 384_1 *386:B 0
*END
*D_NET *387 0.00015504
*CONN
*P *387 O
*I *388:B I *L 0
*CAP
1 387_1 0.00015504
*RES
1 *387 387_1 1.77333
2 387_1 *388:B 0
*END
*D_NET *389 8.64e-05
*CONN
*I *390:Y O *D _71
*I *391:B I *L 0
*CAP
1 389_1 8.64e-05
*RES
1 *390:Y 389_1 0.56
2 389_1 *391:B 0
*END
*D_NET *392 0.0001428
*CONN
*P *392 O
*I *393:B I *L 0
*CAP
1 392_1 0.0001428
*RES
1 *392 392_1 1.63333
2 392_1 *393:B 0
*END
*D_NET *394 6.768e-05
*CONN
*I *395:Y O *D _74
*I *396:B I *L 0
*CAP
1 394_1 6.768e-05
*RES
1 *395:Y 394_1 1.21333
2 394_1 *396:B 0
*END
*D_NET *397 6.768e-05
*CONN
*P *397 O
*I *398:B I *L 0
*CAP
1 397_1 6.768e-05
*RES
1 *397 397_1 1.21333
2 397_1 *398:B 0
*END
*D_NET *399 8.64e-05
*CONN
*I *400:Y O *D _77
*I *401:B I *L 0
*CAP
1 399_1 8.64e-05
*RES
1 *400:Y 399_1 0.56
2 399_1 *401:B 0
*END
*D_NET *402 8.64e-05
*CONN
*I *403:Y O *D _79
*I *404:B I *L 0
*CAP
1 402_1 8.64e-05
*RES
1 *403:Y 402_1 0.56
2 402_1 *404:B 0
*END
*D_NET *405 8.64e-05
*CONN
*I *406:Y O *D _81
*I *407:B I *L 0
*CAP
1 405_1 8.64e-05
*RES
1 *406:Y 405_1 0.56
2 405_1 *407:B 0
*END
*D_NET *408 6.768e-05
*CONN
*I *409:Y O *D _83
*I *410:B I *L 0