* XSpice netlist created from SPICE and liberty sources by spi2xspice.py
*SPICE netlist created from verilog structural netlist module uProcessor by vlog2Spice (qflow)
** Start of included library /usr/local/share/qflow/tech/osu035/osu035_stdcells.sp
** End of included library /usr/local/share/qflow/tech/osu035/osu035_stdcells.sp
.subckt uProcessor a_vdd a_gnd a_adrs_bus_0_ a_adrs_bus_1_ a_adrs_bus_2_ a_adrs_bus_3_ a_adrs_bus_4_ a_adrs_bus_5_ a_adrs_bus_6_ a_adrs_bus_7_ a_adrs_bus_8_ a_adrs_bus_9_ a_adrs_bus_10_ a_adrs_bus_11_ a_adrs_bus_12_ a_adrs_bus_13_ a_adrs_bus_14_ a_adrs_bus_15_ a_clock a_data_in_0_ a_data_in_1_ a_data_in_2_ a_data_in_3_ a_data_in_4_ a_data_in_5_ a_data_in_6_ a_data_in_7_ a_data_in_8_ a_data_in_9_ a_data_in_10_ a_data_in_11_ a_data_in_12_ a_data_in_13_ a_data_in_14_ a_data_in_15_ a_data_out_0_ a_data_out_1_ a_data_out_2_ a_data_out_3_ a_data_out_4_ a_data_out_5_ a_data_out_6_ a_data_out_7_ a_data_out_8_ a_data_out_9_ a_data_out_10_ a_data_out_11_ a_data_out_12_ a_data_out_13_ a_data_out_14_ a_data_out_15_ a_mem_rd a_mem_wr a_reset
ABUFX2_insert276 [\internal_register_inst_07.ra_out\_1_] \internal_register_inst_07.ra_out_1_bF$buf0\ d_lut_BUFX2
ABUFX2_insert275 [\internal_register_inst_07.ra_out\_1_] \internal_register_inst_07.ra_out_1_bF$buf1\ d_lut_BUFX2
ABUFX2_insert274 [\internal_register_inst_07.ra_out\_1_] \internal_register_inst_07.ra_out_1_bF$buf2\ d_lut_BUFX2
ABUFX2_insert273 [\internal_register_inst_07.ra_out\_1_] \internal_register_inst_07.ra_out_1_bF$buf3\ d_lut_BUFX2
ABUFX2_insert272 [reset] reset_bF$buf0 d_lut_BUFX2
ABUFX2_insert271 [reset] reset_bF$buf1 d_lut_BUFX2
ABUFX2_insert270 [reset] reset_bF$buf2 d_lut_BUFX2
ABUFX2_insert269 [reset] reset_bF$buf3 d_lut_BUFX2
ABUFX2_insert268 [reset] reset_bF$buf4 d_lut_BUFX2
ABUFX2_insert267 [reset] reset_bF$buf5 d_lut_BUFX2
ABUFX2_insert266 [\internal_register_inst_07.ra_out\_4_] \internal_register_inst_07.ra_out_4_bF$buf0\ d_lut_BUFX2
ABUFX2_insert265 [\internal_register_inst_07.ra_out\_4_] \internal_register_inst_07.ra_out_4_bF$buf1\ d_lut_BUFX2
ABUFX2_insert264 [\internal_register_inst_07.ra_out\_4_] \internal_register_inst_07.ra_out_4_bF$buf2\ d_lut_BUFX2
ABUFX2_insert263 [\internal_register_inst_07.ra_out\_4_] \internal_register_inst_07.ra_out_4_bF$buf3\ d_lut_BUFX2
ABUFX2_insert262 [\internal_register_inst_07.ra_out\_4_] \internal_register_inst_07.ra_out_4_bF$buf4\ d_lut_BUFX2
ABUFX2_insert261 [\instruction_decoder_inst_08.rBadrs\_1_] \instruction_decoder_inst_08.rBadrs_1_bF$buf0\ d_lut_BUFX2
ABUFX2_insert260 [\instruction_decoder_inst_08.rBadrs\_1_] \instruction_decoder_inst_08.rBadrs_1_bF$buf1\ d_lut_BUFX2
ABUFX2_insert259 [\instruction_decoder_inst_08.rBadrs\_1_] \instruction_decoder_inst_08.rBadrs_1_bF$buf2\ d_lut_BUFX2
ABUFX2_insert258 [\instruction_decoder_inst_08.rBadrs\_1_] \instruction_decoder_inst_08.rBadrs_1_bF$buf3\ d_lut_BUFX2
ABUFX2_insert257 [\instruction_decoder_inst_08.rBadrs\_1_] \instruction_decoder_inst_08.rBadrs_1_bF$buf4\ d_lut_BUFX2
ABUFX2_insert256 [\instruction_decoder_inst_08.rBadrs\_1_] \instruction_decoder_inst_08.rBadrs_1_bF$buf5\ d_lut_BUFX2
ABUFX2_insert255 [\instruction_decoder_inst_08.rBadrs\_1_] \instruction_decoder_inst_08.rBadrs_1_bF$buf6\ d_lut_BUFX2
ABUFX2_insert254 [\instruction_decoder_inst_08.rBadrs\_1_] \instruction_decoder_inst_08.rBadrs_1_bF$buf7\ d_lut_BUFX2
ABUFX2_insert253 [\internal_register_inst_07.ra_out\_7_] \internal_register_inst_07.ra_out_7_bF$buf0\ d_lut_BUFX2
ABUFX2_insert252 [\internal_register_inst_07.ra_out\_7_] \internal_register_inst_07.ra_out_7_bF$buf1\ d_lut_BUFX2
ABUFX2_insert251 [\internal_register_inst_07.ra_out\_7_] \internal_register_inst_07.ra_out_7_bF$buf2\ d_lut_BUFX2
ABUFX2_insert250 [\internal_register_inst_07.ra_out\_7_] \internal_register_inst_07.ra_out_7_bF$buf3\ d_lut_BUFX2
ABUFX2_insert249 [\internal_register_inst_07.ra_out\_7_] \internal_register_inst_07.ra_out_7_bF$buf4\ d_lut_BUFX2
ABUFX2_insert248 [\internal_register_inst_07.rb_out\_0_] \internal_register_inst_07.rb_out_0_bF$buf0\ d_lut_BUFX2
ABUFX2_insert247 [\internal_register_inst_07.rb_out\_0_] \internal_register_inst_07.rb_out_0_bF$buf1\ d_lut_BUFX2
ABUFX2_insert246 [\internal_register_inst_07.rb_out\_0_] \internal_register_inst_07.rb_out_0_bF$buf2\ d_lut_BUFX2
ABUFX2_insert245 [\internal_register_inst_07.rb_out\_0_] \internal_register_inst_07.rb_out_0_bF$buf3\ d_lut_BUFX2
ABUFX2_insert244 [\internal_register_inst_07.ra_out\_10_] \internal_register_inst_07.ra_out_10_bF$buf0\ d_lut_BUFX2
ABUFX2_insert243 [\internal_register_inst_07.ra_out\_10_] \internal_register_inst_07.ra_out_10_bF$buf1\ d_lut_BUFX2
ABUFX2_insert242 [\internal_register_inst_07.ra_out\_10_] \internal_register_inst_07.ra_out_10_bF$buf2\ d_lut_BUFX2
ABUFX2_insert241 [\internal_register_inst_07.ra_out\_10_] \internal_register_inst_07.ra_out_10_bF$buf3\ d_lut_BUFX2
ABUFX2_insert240 [\internal_register_inst_07.rb_out\_3_] \internal_register_inst_07.rb_out_3_bF$buf0\ d_lut_BUFX2
ABUFX2_insert239 [\internal_register_inst_07.rb_out\_3_] \internal_register_inst_07.rb_out_3_bF$buf1\ d_lut_BUFX2
ABUFX2_insert238 [\internal_register_inst_07.rb_out\_3_] \internal_register_inst_07.rb_out_3_bF$buf2\ d_lut_BUFX2
ABUFX2_insert237 [\internal_register_inst_07.rb_out\_3_] \internal_register_inst_07.rb_out_3_bF$buf3\ d_lut_BUFX2
ABUFX2_insert236 [\internal_register_inst_07.rb_out\_3_] \internal_register_inst_07.rb_out_3_bF$buf4\ d_lut_BUFX2
ABUFX2_insert235 [_1498_] _1498__bF$buf0 d_lut_BUFX2
ABUFX2_insert234 [_1498_] _1498__bF$buf1 d_lut_BUFX2
ABUFX2_insert233 [_1498_] _1498__bF$buf2 d_lut_BUFX2
ABUFX2_insert232 [_1498_] _1498__bF$buf3 d_lut_BUFX2
ABUFX2_insert231 [_1498_] _1498__bF$buf4 d_lut_BUFX2
ABUFX2_insert230 [_1463_] _1463__bF$buf0 d_lut_BUFX2
ABUFX2_insert229 [_1463_] _1463__bF$buf1 d_lut_BUFX2
ABUFX2_insert228 [_1463_] _1463__bF$buf2 d_lut_BUFX2
ABUFX2_insert227 [_1463_] _1463__bF$buf3 d_lut_BUFX2
ABUFX2_insert226 [_1463_] _1463__bF$buf4 d_lut_BUFX2
ABUFX2_insert225 [\internal_register_inst_07.ra_out\_13_] \internal_register_inst_07.ra_out_13_bF$buf0\ d_lut_BUFX2
ABUFX2_insert224 [\internal_register_inst_07.ra_out\_13_] \internal_register_inst_07.ra_out_13_bF$buf1\ d_lut_BUFX2
ABUFX2_insert223 [\internal_register_inst_07.ra_out\_13_] \internal_register_inst_07.ra_out_13_bF$buf2\ d_lut_BUFX2
ABUFX2_insert222 [\internal_register_inst_07.ra_out\_13_] \internal_register_inst_07.ra_out_13_bF$buf3\ d_lut_BUFX2
ABUFX2_insert221 [\internal_register_inst_07.rb_out\_6_] \internal_register_inst_07.rb_out_6_bF$buf0\ d_lut_BUFX2
ABUFX2_insert220 [\internal_register_inst_07.rb_out\_6_] \internal_register_inst_07.rb_out_6_bF$buf1\ d_lut_BUFX2
ABUFX2_insert219 [\internal_register_inst_07.rb_out\_6_] \internal_register_inst_07.rb_out_6_bF$buf2\ d_lut_BUFX2
ABUFX2_insert218 [\internal_register_inst_07.rb_out\_6_] \internal_register_inst_07.rb_out_6_bF$buf3\ d_lut_BUFX2
ABUFX2_insert217 [\internal_register_inst_07.rb_out\_9_] \internal_register_inst_07.rb_out_9_bF$buf0\ d_lut_BUFX2
ABUFX2_insert216 [\internal_register_inst_07.rb_out\_9_] \internal_register_inst_07.rb_out_9_bF$buf1\ d_lut_BUFX2
ABUFX2_insert215 [\internal_register_inst_07.rb_out\_9_] \internal_register_inst_07.rb_out_9_bF$buf2\ d_lut_BUFX2
ABUFX2_insert214 [\internal_register_inst_07.rb_out\_9_] \internal_register_inst_07.rb_out_9_bF$buf3\ d_lut_BUFX2
ABUFX2_insert213 [_1716_] _1716__bF$buf0 d_lut_BUFX2
ABUFX2_insert212 [_1716_] _1716__bF$buf1 d_lut_BUFX2
ABUFX2_insert211 [_1716_] _1716__bF$buf2 d_lut_BUFX2
ABUFX2_insert210 [_1716_] _1716__bF$buf3 d_lut_BUFX2
ABUFX2_insert209 [_1716_] _1716__bF$buf4 d_lut_BUFX2
ABUFX2_insert208 [_1534_] _1534__bF$buf0 d_lut_BUFX2
ABUFX2_insert207 [_1534_] _1534__bF$buf1 d_lut_BUFX2
ABUFX2_insert206 [_1534_] _1534__bF$buf2 d_lut_BUFX2
ABUFX2_insert205 [_1534_] _1534__bF$buf3 d_lut_BUFX2
ABUFX2_insert204 [_1534_] _1534__bF$buf4 d_lut_BUFX2
ABUFX2_insert203 [_1249_] _1249__bF$buf0 d_lut_BUFX2
ABUFX2_insert202 [_1249_] _1249__bF$buf1 d_lut_BUFX2
ABUFX2_insert201 [_1249_] _1249__bF$buf2 d_lut_BUFX2
ABUFX2_insert200 [_1249_] _1249__bF$buf3 d_lut_BUFX2
ABUFX2_insert199 [\instruction_decoder_inst_08.rAadrs\_0_] \instruction_decoder_inst_08.rAadrs_0_bF$buf0\ d_lut_BUFX2
ABUFX2_insert198 [\instruction_decoder_inst_08.rAadrs\_0_] \instruction_decoder_inst_08.rAadrs_0_bF$buf1\ d_lut_BUFX2
ABUFX2_insert197 [\instruction_decoder_inst_08.rAadrs\_0_] \instruction_decoder_inst_08.rAadrs_0_bF$buf2\ d_lut_BUFX2
ABUFX2_insert196 [\instruction_decoder_inst_08.rAadrs\_0_] \instruction_decoder_inst_08.rAadrs_0_bF$buf3\ d_lut_BUFX2
ABUFX2_insert195 [\instruction_decoder_inst_08.rAadrs\_0_] \instruction_decoder_inst_08.rAadrs_0_bF$buf4\ d_lut_BUFX2
ABUFX2_insert194 [\instruction_decoder_inst_08.rAadrs\_0_] \instruction_decoder_inst_08.rAadrs_0_bF$buf5\ d_lut_BUFX2
ABUFX2_insert193 [\instruction_decoder_inst_08.rAadrs\_0_] \instruction_decoder_inst_08.rAadrs_0_bF$buf6\ d_lut_BUFX2
ABUFX2_insert192 [\instruction_decoder_inst_08.rAadrs\_0_] \instruction_decoder_inst_08.rAadrs_0_bF$buf7\ d_lut_BUFX2
ABUFX2_insert191 [\internal_register_inst_07.rb_out\_11_] \internal_register_inst_07.rb_out_11_bF$buf0\ d_lut_BUFX2
ABUFX2_insert190 [\internal_register_inst_07.rb_out\_11_] \internal_register_inst_07.rb_out_11_bF$buf1\ d_lut_BUFX2
ABUFX2_insert189 [\internal_register_inst_07.rb_out\_11_] \internal_register_inst_07.rb_out_11_bF$buf2\ d_lut_BUFX2
ABUFX2_insert188 [\internal_register_inst_07.rb_out\_11_] \internal_register_inst_07.rb_out_11_bF$buf3\ d_lut_BUFX2
ABUFX2_insert187 [\address_mux_inst_05.adrs_ctrl\] \address_mux_inst_05.adrs_ctrl_bF$buf0\ d_lut_BUFX2
ABUFX2_insert186 [\address_mux_inst_05.adrs_ctrl\] \address_mux_inst_05.adrs_ctrl_bF$buf1\ d_lut_BUFX2
ABUFX2_insert185 [\address_mux_inst_05.adrs_ctrl\] \address_mux_inst_05.adrs_ctrl_bF$buf2\ d_lut_BUFX2
ABUFX2_insert184 [\address_mux_inst_05.adrs_ctrl\] \address_mux_inst_05.adrs_ctrl_bF$buf3\ d_lut_BUFX2
ABUFX2_insert183 [\address_mux_inst_05.adrs_ctrl\] \address_mux_inst_05.adrs_ctrl_bF$buf4\ d_lut_BUFX2
ABUFX2_insert182 [\internal_register_inst_07.rb_out\_14_] \internal_register_inst_07.rb_out_14_bF$buf0\ d_lut_BUFX2
ABUFX2_insert181 [\internal_register_inst_07.rb_out\_14_] \internal_register_inst_07.rb_out_14_bF$buf1\ d_lut_BUFX2
ABUFX2_insert180 [\internal_register_inst_07.rb_out\_14_] \internal_register_inst_07.rb_out_14_bF$buf2\ d_lut_BUFX2
ABUFX2_insert179 [\internal_register_inst_07.rb_out\_14_] \internal_register_inst_07.rb_out_14_bF$buf3\ d_lut_BUFX2
ABUFX2_insert178 [\internal_register_inst_07.ra_out\_2_] \internal_register_inst_07.ra_out_2_bF$buf0\ d_lut_BUFX2
ABUFX2_insert177 [\internal_register_inst_07.ra_out\_2_] \internal_register_inst_07.ra_out_2_bF$buf1\ d_lut_BUFX2
ABUFX2_insert176 [\internal_register_inst_07.ra_out\_2_] \internal_register_inst_07.ra_out_2_bF$buf2\ d_lut_BUFX2
ABUFX2_insert175 [\internal_register_inst_07.ra_out\_2_] \internal_register_inst_07.ra_out_2_bF$buf3\ d_lut_BUFX2
ABUFX2_insert174 [\internal_register_inst_07.ra_out\_2_] \internal_register_inst_07.ra_out_2_bF$buf4\ d_lut_BUFX2
ABUFX2_insert173 [\internal_register_inst_07.ra_out\_5_] \internal_register_inst_07.ra_out_5_bF$buf0\ d_lut_BUFX2
ABUFX2_insert172 [\internal_register_inst_07.ra_out\_5_] \internal_register_inst_07.ra_out_5_bF$buf1\ d_lut_BUFX2
ABUFX2_insert171 [\internal_register_inst_07.ra_out\_5_] \internal_register_inst_07.ra_out_5_bF$buf2\ d_lut_BUFX2
ABUFX2_insert170 [\internal_register_inst_07.ra_out\_5_] \internal_register_inst_07.ra_out_5_bF$buf3\ d_lut_BUFX2
ABUFX2_insert169 [\internal_register_inst_07.ra_out\_5_] \internal_register_inst_07.ra_out_5_bF$buf4\ d_lut_BUFX2
ABUFX2_insert168 [\control_unit_ints_09.flag\] \control_unit_ints_09.flag_bF$buf0\ d_lut_BUFX2
ABUFX2_insert167 [\control_unit_ints_09.flag\] \control_unit_ints_09.flag_bF$buf1\ d_lut_BUFX2
ABUFX2_insert166 [\control_unit_ints_09.flag\] \control_unit_ints_09.flag_bF$buf2\ d_lut_BUFX2
ABUFX2_insert165 [\control_unit_ints_09.flag\] \control_unit_ints_09.flag_bF$buf3\ d_lut_BUFX2
ABUFX2_insert164 [\control_unit_ints_09.flag\] \control_unit_ints_09.flag_bF$buf4\ d_lut_BUFX2
ABUFX2_insert163 [\control_unit_ints_09.flag\] \control_unit_ints_09.flag_bF$buf5\ d_lut_BUFX2
ABUFX2_insert162 [\control_unit_ints_09.flag\] \control_unit_ints_09.flag_bF$buf6\ d_lut_BUFX2
ABUFX2_insert161 [\internal_register_inst_07.ra_out\_8_] \internal_register_inst_07.ra_out_8_bF$buf0\ d_lut_BUFX2
ABUFX2_insert160 [\internal_register_inst_07.ra_out\_8_] \internal_register_inst_07.ra_out_8_bF$buf1\ d_lut_BUFX2
ABUFX2_insert159 [\internal_register_inst_07.ra_out\_8_] \internal_register_inst_07.ra_out_8_bF$buf2\ d_lut_BUFX2
ABUFX2_insert158 [\internal_register_inst_07.ra_out\_8_] \internal_register_inst_07.ra_out_8_bF$buf3\ d_lut_BUFX2
ABUFX2_insert157 [\internal_register_inst_07.rb_out\_1_] \internal_register_inst_07.rb_out_1_bF$buf0\ d_lut_BUFX2
ABUFX2_insert156 [\internal_register_inst_07.rb_out\_1_] \internal_register_inst_07.rb_out_1_bF$buf1\ d_lut_BUFX2
ABUFX2_insert155 [\internal_register_inst_07.rb_out\_1_] \internal_register_inst_07.rb_out_1_bF$buf2\ d_lut_BUFX2
ABUFX2_insert154 [\internal_register_inst_07.rb_out\_1_] \internal_register_inst_07.rb_out_1_bF$buf3\ d_lut_BUFX2
ABUFX2_insert153 [\internal_register_inst_07.ra_out\_11_] \internal_register_inst_07.ra_out_11_bF$buf0\ d_lut_BUFX2
ABUFX2_insert152 [\internal_register_inst_07.ra_out\_11_] \internal_register_inst_07.ra_out_11_bF$buf1\ d_lut_BUFX2
ABUFX2_insert151 [\internal_register_inst_07.ra_out\_11_] \internal_register_inst_07.ra_out_11_bF$buf2\ d_lut_BUFX2
ABUFX2_insert150 [\internal_register_inst_07.ra_out\_11_] \internal_register_inst_07.ra_out_11_bF$buf3\ d_lut_BUFX2
ABUFX2_insert149 [\internal_register_inst_07.ra_out\_11_] \internal_register_inst_07.ra_out_11_bF$buf4\ d_lut_BUFX2
ABUFX2_insert148 [\internal_register_inst_07.rb_out\_4_] \internal_register_inst_07.rb_out_4_bF$buf0\ d_lut_BUFX2
ABUFX2_insert147 [\internal_register_inst_07.rb_out\_4_] \internal_register_inst_07.rb_out_4_bF$buf1\ d_lut_BUFX2
ABUFX2_insert146 [\internal_register_inst_07.rb_out\_4_] \internal_register_inst_07.rb_out_4_bF$buf2\ d_lut_BUFX2
ABUFX2_insert145 [\internal_register_inst_07.rb_out\_4_] \internal_register_inst_07.rb_out_4_bF$buf3\ d_lut_BUFX2
ABUFX2_insert144 [\internal_register_inst_07.rb_out\_4_] \internal_register_inst_07.rb_out_4_bF$buf4\ d_lut_BUFX2
ABUFX2_insert143 [\internal_register_inst_07.ra_out\_14_] \internal_register_inst_07.ra_out_14_bF$buf0\ d_lut_BUFX2
ABUFX2_insert142 [\internal_register_inst_07.ra_out\_14_] \internal_register_inst_07.ra_out_14_bF$buf1\ d_lut_BUFX2
ABUFX2_insert141 [\internal_register_inst_07.ra_out\_14_] \internal_register_inst_07.ra_out_14_bF$buf2\ d_lut_BUFX2
ABUFX2_insert140 [\internal_register_inst_07.ra_out\_14_] \internal_register_inst_07.ra_out_14_bF$buf3\ d_lut_BUFX2
ABUFX2_insert139 [\internal_register_inst_07.rb_out\_7_] \internal_register_inst_07.rb_out_7_bF$buf0\ d_lut_BUFX2
ABUFX2_insert138 [\internal_register_inst_07.rb_out\_7_] \internal_register_inst_07.rb_out_7_bF$buf1\ d_lut_BUFX2
ABUFX2_insert137 [\internal_register_inst_07.rb_out\_7_] \internal_register_inst_07.rb_out_7_bF$buf2\ d_lut_BUFX2
ABUFX2_insert136 [\internal_register_inst_07.rb_out\_7_] \internal_register_inst_07.rb_out_7_bF$buf3\ d_lut_BUFX2
ABUFX2_insert135 [\internal_register_inst_07.rb_out\_7_] \internal_register_inst_07.rb_out_7_bF$buf4\ d_lut_BUFX2
ABUFX2_insert134 [\control_unit_ints_09.inst_wr\] \control_unit_ints_09.inst_wr_bF$buf0\ d_lut_BUFX2
ABUFX2_insert133 [\control_unit_ints_09.inst_wr\] \control_unit_ints_09.inst_wr_bF$buf1\ d_lut_BUFX2
ABUFX2_insert132 [\control_unit_ints_09.inst_wr\] \control_unit_ints_09.inst_wr_bF$buf2\ d_lut_BUFX2
ABUFX2_insert131 [\control_unit_ints_09.inst_wr\] \control_unit_ints_09.inst_wr_bF$buf3\ d_lut_BUFX2
ABUFX2_insert130 [\control_unit_ints_09.imm_en\] \control_unit_ints_09.imm_en_bF$buf0\ d_lut_BUFX2
ABUFX2_insert129 [\control_unit_ints_09.imm_en\] \control_unit_ints_09.imm_en_bF$buf1\ d_lut_BUFX2
ABUFX2_insert128 [\control_unit_ints_09.imm_en\] \control_unit_ints_09.imm_en_bF$buf2\ d_lut_BUFX2
ABUFX2_insert127 [\control_unit_ints_09.imm_en\] \control_unit_ints_09.imm_en_bF$buf3\ d_lut_BUFX2
ABUFX2_insert126 [\instruction_decoder_inst_08.rAadrs\_1_] \instruction_decoder_inst_08.rAadrs_1_bF$buf0\ d_lut_BUFX2
ABUFX2_insert125 [\instruction_decoder_inst_08.rAadrs\_1_] \instruction_decoder_inst_08.rAadrs_1_bF$buf1\ d_lut_BUFX2
ABUFX2_insert124 [\instruction_decoder_inst_08.rAadrs\_1_] \instruction_decoder_inst_08.rAadrs_1_bF$buf2\ d_lut_BUFX2
ABUFX2_insert123 [\instruction_decoder_inst_08.rAadrs\_1_] \instruction_decoder_inst_08.rAadrs_1_bF$buf3\ d_lut_BUFX2
ABUFX2_insert122 [\instruction_decoder_inst_08.rAadrs\_1_] \instruction_decoder_inst_08.rAadrs_1_bF$buf4\ d_lut_BUFX2
ABUFX2_insert121 [\instruction_decoder_inst_08.rAadrs\_1_] \instruction_decoder_inst_08.rAadrs_1_bF$buf5\ d_lut_BUFX2
ABUFX2_insert120 [\instruction_decoder_inst_08.rAadrs\_1_] \instruction_decoder_inst_08.rAadrs_1_bF$buf6\ d_lut_BUFX2
ABUFX2_insert119 [\instruction_decoder_inst_08.rAadrs\_1_] \instruction_decoder_inst_08.rAadrs_1_bF$buf7\ d_lut_BUFX2
ABUFX2_insert118 [\internal_register_inst_07.rb_out\_12_] \internal_register_inst_07.rb_out_12_bF$buf0\ d_lut_BUFX2
ABUFX2_insert117 [\internal_register_inst_07.rb_out\_12_] \internal_register_inst_07.rb_out_12_bF$buf1\ d_lut_BUFX2
ABUFX2_insert116 [\internal_register_inst_07.rb_out\_12_] \internal_register_inst_07.rb_out_12_bF$buf2\ d_lut_BUFX2
ABUFX2_insert115 [\internal_register_inst_07.rb_out\_12_] \internal_register_inst_07.rb_out_12_bF$buf3\ d_lut_BUFX2
ABUFX2_insert114 [\internal_register_inst_07.ra_out\_0_] \internal_register_inst_07.ra_out_0_bF$buf0\ d_lut_BUFX2
ABUFX2_insert113 [\internal_register_inst_07.ra_out\_0_] \internal_register_inst_07.ra_out_0_bF$buf1\ d_lut_BUFX2
ABUFX2_insert112 [\internal_register_inst_07.ra_out\_0_] \internal_register_inst_07.ra_out_0_bF$buf2\ d_lut_BUFX2
ABUFX2_insert111 [\internal_register_inst_07.ra_out\_0_] \internal_register_inst_07.ra_out_0_bF$buf3\ d_lut_BUFX2
ABUFX2_insert110 [_1409_] _1409__bF$buf0 d_lut_BUFX2
ABUFX2_insert109 [_1409_] _1409__bF$buf1 d_lut_BUFX2
ABUFX2_insert108 [_1409_] _1409__bF$buf2 d_lut_BUFX2
ABUFX2_insert107 [_1409_] _1409__bF$buf3 d_lut_BUFX2
ABUFX2_insert106 [_1544_] _1544__bF$buf0 d_lut_BUFX2
ABUFX2_insert105 [_1544_] _1544__bF$buf1 d_lut_BUFX2
ABUFX2_insert104 [_1544_] _1544__bF$buf2 d_lut_BUFX2
ABUFX2_insert103 [_1544_] _1544__bF$buf3 d_lut_BUFX2
ABUFX2_insert102 [_1544_] _1544__bF$buf4 d_lut_BUFX2
ABUFX2_insert101 [_1544_] _1544__bF$buf5 d_lut_BUFX2
ABUFX2_insert100 [_1544_] _1544__bF$buf6 d_lut_BUFX2
ABUFX2_insert99 [_1544_] _1544__bF$buf7 d_lut_BUFX2
ABUFX2_insert98 [\internal_register_inst_07.rb_out\_15_] \internal_register_inst_07.rb_out_15_bF$buf0\ d_lut_BUFX2
ABUFX2_insert97 [\internal_register_inst_07.rb_out\_15_] \internal_register_inst_07.rb_out_15_bF$buf1\ d_lut_BUFX2
ABUFX2_insert96 [\internal_register_inst_07.rb_out\_15_] \internal_register_inst_07.rb_out_15_bF$buf2\ d_lut_BUFX2
ABUFX2_insert95 [\internal_register_inst_07.rb_out\_15_] \internal_register_inst_07.rb_out_15_bF$buf3\ d_lut_BUFX2
ABUFX2_insert94 [\internal_register_inst_07.ra_out\_3_] \internal_register_inst_07.ra_out_3_bF$buf0\ d_lut_BUFX2
ABUFX2_insert93 [\internal_register_inst_07.ra_out\_3_] \internal_register_inst_07.ra_out_3_bF$buf1\ d_lut_BUFX2
ABUFX2_insert92 [\internal_register_inst_07.ra_out\_3_] \internal_register_inst_07.ra_out_3_bF$buf2\ d_lut_BUFX2
ABUFX2_insert91 [\internal_register_inst_07.ra_out\_3_] \internal_register_inst_07.ra_out_3_bF$buf3\ d_lut_BUFX2
ABUFX2_insert90 [\internal_register_inst_07.ra_out\_3_] \internal_register_inst_07.ra_out_3_bF$buf4\ d_lut_BUFX2
ABUFX2_insert89 [\instruction_decoder_inst_08.rBadrs\_0_] \instruction_decoder_inst_08.rBadrs_0_bF$buf0\ d_lut_BUFX2
ABUFX2_insert88 [\instruction_decoder_inst_08.rBadrs\_0_] \instruction_decoder_inst_08.rBadrs_0_bF$buf1\ d_lut_BUFX2
ABUFX2_insert87 [\instruction_decoder_inst_08.rBadrs\_0_] \instruction_decoder_inst_08.rBadrs_0_bF$buf2\ d_lut_BUFX2
ABUFX2_insert86 [\instruction_decoder_inst_08.rBadrs\_0_] \instruction_decoder_inst_08.rBadrs_0_bF$buf3\ d_lut_BUFX2
ABUFX2_insert85 [\instruction_decoder_inst_08.rBadrs\_0_] \instruction_decoder_inst_08.rBadrs_0_bF$buf4\ d_lut_BUFX2
ABUFX2_insert84 [\instruction_decoder_inst_08.rBadrs\_0_] \instruction_decoder_inst_08.rBadrs_0_bF$buf5\ d_lut_BUFX2
ABUFX2_insert83 [\instruction_decoder_inst_08.rBadrs\_0_] \instruction_decoder_inst_08.rBadrs_0_bF$buf6\ d_lut_BUFX2
ABUFX2_insert82 [\instruction_decoder_inst_08.rBadrs\_0_] \instruction_decoder_inst_08.rBadrs_0_bF$buf7\ d_lut_BUFX2
ABUFX2_insert81 [\internal_register_inst_07.ra_out\_6_] \internal_register_inst_07.ra_out_6_bF$buf0\ d_lut_BUFX2
ABUFX2_insert80 [\internal_register_inst_07.ra_out\_6_] \internal_register_inst_07.ra_out_6_bF$buf1\ d_lut_BUFX2
ABUFX2_insert79 [\internal_register_inst_07.ra_out\_6_] \internal_register_inst_07.ra_out_6_bF$buf2\ d_lut_BUFX2
ABUFX2_insert78 [\internal_register_inst_07.ra_out\_6_] \internal_register_inst_07.ra_out_6_bF$buf3\ d_lut_BUFX2
ABUFX2_insert77 [\internal_register_inst_07.ra_out\_6_] \internal_register_inst_07.ra_out_6_bF$buf4\ d_lut_BUFX2
ABUFX2_insert76 [_1876_] _1876__bF$buf0 d_lut_BUFX2
ABUFX2_insert75 [_1876_] _1876__bF$buf1 d_lut_BUFX2
ABUFX2_insert74 [_1876_] _1876__bF$buf2 d_lut_BUFX2
ABUFX2_insert73 [_1876_] _1876__bF$buf3 d_lut_BUFX2
ABUFX2_insert72 [_1876_] _1876__bF$buf4 d_lut_BUFX2
ABUFX2_insert71 [_1515_] _1515__bF$buf0 d_lut_BUFX2
ABUFX2_insert70 [_1515_] _1515__bF$buf1 d_lut_BUFX2
ABUFX2_insert69 [_1515_] _1515__bF$buf2 d_lut_BUFX2
ABUFX2_insert68 [_1515_] _1515__bF$buf3 d_lut_BUFX2
ABUFX2_insert67 [_1515_] _1515__bF$buf4 d_lut_BUFX2
ABUFX2_insert66 [\internal_register_inst_07.ra_out\_9_] \internal_register_inst_07.ra_out_9_bF$buf0\ d_lut_BUFX2
ABUFX2_insert65 [\internal_register_inst_07.ra_out\_9_] \internal_register_inst_07.ra_out_9_bF$buf1\ d_lut_BUFX2
ABUFX2_insert64 [\internal_register_inst_07.ra_out\_9_] \internal_register_inst_07.ra_out_9_bF$buf2\ d_lut_BUFX2
ABUFX2_insert63 [\internal_register_inst_07.ra_out\_9_] \internal_register_inst_07.ra_out_9_bF$buf3\ d_lut_BUFX2
ABUFX2_insert62 [\internal_register_inst_07.ra_out\_9_] \internal_register_inst_07.ra_out_9_bF$buf4\ d_lut_BUFX2
ABUFX2_insert61 [\internal_register_inst_07.rb_out\_2_] \internal_register_inst_07.rb_out_2_bF$buf0\ d_lut_BUFX2
ABUFX2_insert60 [\internal_register_inst_07.rb_out\_2_] \internal_register_inst_07.rb_out_2_bF$buf1\ d_lut_BUFX2
ABUFX2_insert59 [\internal_register_inst_07.rb_out\_2_] \internal_register_inst_07.rb_out_2_bF$buf2\ d_lut_BUFX2
ABUFX2_insert58 [\internal_register_inst_07.rb_out\_2_] \internal_register_inst_07.rb_out_2_bF$buf3\ d_lut_BUFX2
ABUFX2_insert57 [\internal_register_inst_07.ra_out\_12_] \internal_register_inst_07.ra_out_12_bF$buf0\ d_lut_BUFX2
ABUFX2_insert56 [\internal_register_inst_07.ra_out\_12_] \internal_register_inst_07.ra_out_12_bF$buf1\ d_lut_BUFX2
ABUFX2_insert55 [\internal_register_inst_07.ra_out\_12_] \internal_register_inst_07.ra_out_12_bF$buf2\ d_lut_BUFX2
ABUFX2_insert54 [\internal_register_inst_07.ra_out\_12_] \internal_register_inst_07.ra_out_12_bF$buf3\ d_lut_BUFX2
ABUFX2_insert53 [\internal_register_inst_07.rb_out\_5_] \internal_register_inst_07.rb_out_5_bF$buf0\ d_lut_BUFX2
ABUFX2_insert52 [\internal_register_inst_07.rb_out\_5_] \internal_register_inst_07.rb_out_5_bF$buf1\ d_lut_BUFX2
ABUFX2_insert51 [\internal_register_inst_07.rb_out\_5_] \internal_register_inst_07.rb_out_5_bF$buf2\ d_lut_BUFX2
ABUFX2_insert50 [\internal_register_inst_07.rb_out\_5_] \internal_register_inst_07.rb_out_5_bF$buf3\ d_lut_BUFX2
ABUFX2_insert49 [\internal_register_inst_07.rb_out\_5_] \internal_register_inst_07.rb_out_5_bF$buf4\ d_lut_BUFX2
ABUFX2_insert48 [\internal_register_inst_07.ra_out\_15_] \internal_register_inst_07.ra_out_15_bF$buf0\ d_lut_BUFX2
ABUFX2_insert47 [\internal_register_inst_07.ra_out\_15_] \internal_register_inst_07.ra_out_15_bF$buf1\ d_lut_BUFX2
ABUFX2_insert46 [\internal_register_inst_07.ra_out\_15_] \internal_register_inst_07.ra_out_15_bF$buf2\ d_lut_BUFX2
ABUFX2_insert45 [\internal_register_inst_07.ra_out\_15_] \internal_register_inst_07.ra_out_15_bF$buf3\ d_lut_BUFX2
ABUFX2_insert44 [\internal_register_inst_07.rb_out\_8_] \internal_register_inst_07.rb_out_8_bF$buf0\ d_lut_BUFX2
ABUFX2_insert43 [\internal_register_inst_07.rb_out\_8_] \internal_register_inst_07.rb_out_8_bF$buf1\ d_lut_BUFX2
ABUFX2_insert42 [\internal_register_inst_07.rb_out\_8_] \internal_register_inst_07.rb_out_8_bF$buf2\ d_lut_BUFX2
ABUFX2_insert41 [\internal_register_inst_07.rb_out\_8_] \internal_register_inst_07.rb_out_8_bF$buf3\ d_lut_BUFX2
ABUFX2_insert40 [_1697_] _1697__bF$buf0 d_lut_BUFX2
ABUFX2_insert39 [_1697_] _1697__bF$buf1 d_lut_BUFX2
ABUFX2_insert38 [_1697_] _1697__bF$buf2 d_lut_BUFX2
ABUFX2_insert37 [_1697_] _1697__bF$buf3 d_lut_BUFX2
ABUFX2_insert36 [_1697_] _1697__bF$buf4 d_lut_BUFX2
ACLKBUF1_insert35 [clock] clock_bF$buf0 d_lut_CLKBUF1
ACLKBUF1_insert34 [clock] clock_bF$buf1 d_lut_CLKBUF1
ACLKBUF1_insert33 [clock] clock_bF$buf2 d_lut_CLKBUF1
ACLKBUF1_insert32 [clock] clock_bF$buf3 d_lut_CLKBUF1
ACLKBUF1_insert31 [clock] clock_bF$buf4 d_lut_CLKBUF1
ACLKBUF1_insert30 [clock] clock_bF$buf5 d_lut_CLKBUF1
ACLKBUF1_insert29 [clock] clock_bF$buf6 d_lut_CLKBUF1
ACLKBUF1_insert28 [clock] clock_bF$buf7 d_lut_CLKBUF1
ACLKBUF1_insert27 [clock] clock_bF$buf8 d_lut_CLKBUF1
ACLKBUF1_insert26 [clock] clock_bF$buf9 d_lut_CLKBUF1
ACLKBUF1_insert25 [clock] clock_bF$buf10 d_lut_CLKBUF1
ACLKBUF1_insert24 [clock] clock_bF$buf11 d_lut_CLKBUF1
ACLKBUF1_insert23 [clock] clock_bF$buf12 d_lut_CLKBUF1
ACLKBUF1_insert22 [clock] clock_bF$buf13 d_lut_CLKBUF1
ABUFX2_insert21 [_1248_] _1248__bF$buf0 d_lut_BUFX2
ABUFX2_insert20 [_1248_] _1248__bF$buf1 d_lut_BUFX2
ABUFX2_insert19 [_1248_] _1248__bF$buf2 d_lut_BUFX2
ABUFX2_insert18 [_1248_] _1248__bF$buf3 d_lut_BUFX2
ABUFX2_insert17 [_1480_] _1480__bF$buf0 d_lut_BUFX2
ABUFX2_insert16 [_1480_] _1480__bF$buf1 d_lut_BUFX2
ABUFX2_insert15 [_1480_] _1480__bF$buf2 d_lut_BUFX2
ABUFX2_insert14 [_1480_] _1480__bF$buf3 d_lut_BUFX2
ABUFX2_insert13 [_1480_] _1480__bF$buf4 d_lut_BUFX2
ABUFX2_insert12 [\internal_register_inst_07.rb_out\_10_] \internal_register_inst_07.rb_out_10_bF$buf0\ d_lut_BUFX2
ABUFX2_insert11 [\internal_register_inst_07.rb_out\_10_] \internal_register_inst_07.rb_out_10_bF$buf1\ d_lut_BUFX2
ABUFX2_insert10 [\internal_register_inst_07.rb_out\_10_] \internal_register_inst_07.rb_out_10_bF$buf2\ d_lut_BUFX2
ABUFX2_insert9 [\internal_register_inst_07.rb_out\_10_] \internal_register_inst_07.rb_out_10_bF$buf3\ d_lut_BUFX2
ABUFX2_insert8 [_1445_] _1445__bF$buf0 d_lut_BUFX2
ABUFX2_insert7 [_1445_] _1445__bF$buf1 d_lut_BUFX2
ABUFX2_insert6 [_1445_] _1445__bF$buf2 d_lut_BUFX2
ABUFX2_insert5 [_1445_] _1445__bF$buf3 d_lut_BUFX2
ABUFX2_insert4 [_1445_] _1445__bF$buf4 d_lut_BUFX2
ABUFX2_insert3 [\internal_register_inst_07.rb_out\_13_] \internal_register_inst_07.rb_out_13_bF$buf0\ d_lut_BUFX2
ABUFX2_insert2 [\internal_register_inst_07.rb_out\_13_] \internal_register_inst_07.rb_out_13_bF$buf1\ d_lut_BUFX2
ABUFX2_insert1 [\internal_register_inst_07.rb_out\_13_] \internal_register_inst_07.rb_out_13_bF$buf2\ d_lut_BUFX2
ABUFX2_insert0 [\internal_register_inst_07.rb_out\_13_] \internal_register_inst_07.rb_out_13_bF$buf3\ d_lut_BUFX2
A_2016_ [_0__0_] adrs_bus_0_ d_lut_BUFX2
A_2017_ [_0__1_] adrs_bus_1_ d_lut_BUFX2
A_2018_ [_0__2_] adrs_bus_2_ d_lut_BUFX2
A_2019_ [_0__3_] adrs_bus_3_ d_lut_BUFX2
A_2020_ [_0__4_] adrs_bus_4_ d_lut_BUFX2
A_2021_ [_0__5_] adrs_bus_5_ d_lut_BUFX2
A_2022_ [_0__6_] adrs_bus_6_ d_lut_BUFX2
A_2023_ [_0__7_] adrs_bus_7_ d_lut_BUFX2
A_2024_ [_0__8_] adrs_bus_8_ d_lut_BUFX2
A_2025_ [_0__9_] adrs_bus_9_ d_lut_BUFX2
A_2026_ [_0__10_] adrs_bus_10_ d_lut_BUFX2
A_2027_ [_0__11_] adrs_bus_11_ d_lut_BUFX2
A_2028_ [_0__12_] adrs_bus_12_ d_lut_BUFX2
A_2029_ [_0__13_] adrs_bus_13_ d_lut_BUFX2
A_2030_ [_0__14_] adrs_bus_14_ d_lut_BUFX2
A_2031_ [_0__15_] adrs_bus_15_ d_lut_BUFX2
A_2032_ [\internal_register_inst_07.rb_out_0_bF$buf3\] data_out_0_ d_lut_BUFX2
A_2033_ [\internal_register_inst_07.rb_out_1_bF$buf3\] data_out_1_ d_lut_BUFX2
A_2034_ [\internal_register_inst_07.rb_out_2_bF$buf3\] data_out_2_ d_lut_BUFX2
A_2035_ [\internal_register_inst_07.rb_out_3_bF$buf4\] data_out_3_ d_lut_BUFX2
A_2036_ [\internal_register_inst_07.rb_out_4_bF$buf4\] data_out_4_ d_lut_BUFX2
A_2037_ [\internal_register_inst_07.rb_out_5_bF$buf4\] data_out_5_ d_lut_BUFX2
A_2038_ [\internal_register_inst_07.rb_out_6_bF$buf3\] data_out_6_ d_lut_BUFX2
A_2039_ [\internal_register_inst_07.rb_out_7_bF$buf4\] data_out_7_ d_lut_BUFX2
A_2040_ [\internal_register_inst_07.rb_out_8_bF$buf3\] data_out_8_ d_lut_BUFX2
A_2041_ [\internal_register_inst_07.rb_out_9_bF$buf3\] data_out_9_ d_lut_BUFX2
A_2042_ [\internal_register_inst_07.rb_out_10_bF$buf3\] data_out_10_ d_lut_BUFX2
A_2043_ [\internal_register_inst_07.rb_out_11_bF$buf3\] data_out_11_ d_lut_BUFX2
A_2044_ [\internal_register_inst_07.rb_out_12_bF$buf3\] data_out_12_ d_lut_BUFX2
A_2045_ [\internal_register_inst_07.rb_out_13_bF$buf3\] data_out_13_ d_lut_BUFX2
A_2046_ [\internal_register_inst_07.rb_out_14_bF$buf3\] data_out_14_ d_lut_BUFX2
A_2047_ [\internal_register_inst_07.rb_out_15_bF$buf3\] data_out_15_ d_lut_BUFX2
A_2048_ [_1_] mem_rd d_lut_BUFX2
A_2049_ [_2_] mem_wr d_lut_BUFX2
A_2050_ [\address_mux_inst_05.pc_out\_0_] _3_ d_lut_INVX1
A_2051_ [\internal_register_inst_07.ra_out_0_bF$buf3\ \address_mux_inst_05.adrs_ctrl_bF$buf4\] _4_ d_lut_NAND2X1
A_2052_ [\address_mux_inst_05.adrs_ctrl_bF$buf3\ _3_ _4_] _0__0_ d_lut_OAI21X1
A_2053_ [\address_mux_inst_05.pc_out\_1_] _5_ d_lut_INVX1
A_2054_ [\address_mux_inst_05.adrs_ctrl_bF$buf2\ \internal_register_inst_07.ra_out_1_bF$buf3\] _6_ d_lut_NAND2X1
A_2055_ [\address_mux_inst_05.adrs_ctrl_bF$buf1\ _5_ _6_] _0__1_ d_lut_OAI21X1
A_2056_ [\address_mux_inst_05.pc_out\_2_] _7_ d_lut_INVX1
A_2057_ [\address_mux_inst_05.adrs_ctrl_bF$buf0\ \internal_register_inst_07.ra_out_2_bF$buf4\] _8_ d_lut_NAND2X1