*SPEF "IEEE 1481.1999"
*DESIGN "uProcessor"
*DATE "13:42:40 Monday August 10, 2020"
*VENDOR "unknown"
*PROGRAM "qrouter"
*VERSION "unknown"
*DESIGN_FLOW "qflow"
*DIVIDER /
*DELIMITER :
*BUS_DELIMITER <>
*T_UNIT 1 PS
*C_UNIT 1 FF
*R_UNIT 1 OHM
*L_UNIT 1 HENRY

*NAME_MAP
*1 \alu_inst01_inst12_sel\[2]
*2 _3511_
*3 _3474_
*4 _3262_
*5 _3264_
*6 _3258_
*7 _3265_
*8 _3277_
*9 _3299_
*10 _2918_
*11 _2902_
*12 _2887_
*13 _2891_
*14 _2884_
*15 _2908_
*16 _2920_
*17 _2874_
*18 _3305_
*19 _728_
*20 _2877_
*21 _2949_
*22 _2993_
*23 _3015_
*24 _2971_
*25 _3037_
*26 _3059_
*27 _2927_
*28 _3125_
*29 _2882_
*30 _3147_
*31 _3081_
*32 _3169_
*33 _3235_
*34 _3191_
*35 _3103_
*36 _3213_
*37 _732_
*38 _2881_
*39 _2949_
*40 _3103_
*41 _3191_
*42 _3213_
*43 _3081_
*44 _3235_
*45 _3169_
*46 _3147_
*47 _2882_
*48 _2927_
*49 _3125_
*50 _2993_
*51 _3015_
*52 _2971_
*53 _3037_
*54 _3059_
*55 _736_
*56 _2885_
*57 _2995_
*58 _2973_
*59 _3039_
*60 _3061_
*61 _3017_
*62 _2929_
*63 _3127_
*64 _3105_
*65 _3149_
*66 _2886_
*67 _2951_
*68 _3083_
*69 _3215_
*70 _3237_
*71 _3171_
*72 _3193_
*73 _738_
*74 _2887_
*75 _2996_
*76 _2974_
*77 _3040_
*78 _3018_
*79 _3128_
*80 _3150_
*81 _2888_
*82 _2930_
*83 _3062_
*84 _2952_
*85 _3084_
*86 _3216_
*87 _3238_
*88 _3194_
*89 _3172_
*90 _3106_
*91 _745_
*92 _2894_
*93 _2956_
*94 _2934_
*95 _3242_
*96 _3088_
*97 _3176_
*98 _3154_
*99 _3110_
*100 _3132_
*101 _2899_
*102 _3220_
*103 _3198_
*104 _2978_
*105 _3000_
*106 _3022_
*107 _3044_
*108 _3066_
*109 _748_
*110 _2897_
*111 _2977_
*112 _2955_
*113 _2999_
*114 _3021_
*115 _3043_
*116 _3065_
*117 _2933_
*118 _2898_
*119 _3131_
*120 _3153_
*121 _3109_
*122 _3087_
*123 _3175_
*124 _3197_
*125 _3241_
*126 _3219_
*127 _754_
*128 _2903_
*129 _3244_
*130 _3200_
*131 _3222_
*132 _3178_
*133 _3112_
*134 _2904_
*135 _3156_
*136 _3134_
*137 _3090_
*138 _2980_
*139 _3046_
*140 _3068_
*141 _3024_
*142 _3002_
*143 _2958_
*144 _2936_
*145 _756_
*146 _2905_
*147 _3245_
*148 _3201_
*149 _3223_
*150 _3179_
*151 _3113_
*152 _3157_
*153 _2906_
*154 _3091_
*155 _3135_
*156 _2959_
*157 _2981_
*158 _3047_
*159 _3069_
*160 _2937_
*161 _3025_
*162 _3003_
*163 _759_
*164 _2908_
*165 _2961_
*166 _3093_
*167 _3225_
*168 _3247_
*169 _3203_
*170 _3181_
*171 _3115_
*172 _2939_
*173 _2910_
*174 _3159_
*175 _3137_
*176 _3049_
*177 _3027_
*178 _3071_
*179 _3005_
*180 _2983_
*181 _760_
*182 _2909_
*183 _2961_
*184 _3093_
*185 _3225_
*186 _3181_
*187 _3247_
*188 _3203_
*189 _3115_
*190 _3049_
*191 _3071_
*192 _3027_
*193 _3005_
*194 _2983_
*195 _2939_
*196 _2910_
*197 _3137_
*198 _3159_
*199 _762_
*200 _2911_
*201 _2962_
*202 _3204_
*203 _3094_
*204 _3182_
*205 _3116_
*206 _3138_
*207 _3160_
*208 _2913_
*209 _2940_
*210 _2984_
*211 _3006_
*212 _3072_
*213 _3028_
*214 _3050_
*215 _3226_
*216 _3248_
*217 _763_
*218 _2912_
*219 _2962_
*220 _3204_
*221 _3094_
*222 _3248_
*223 _3226_
*224 _3182_
*225 _3116_
*226 _3160_
*227 _3138_
*228 _2913_
*229 _2940_
*230 _2984_
*231 _3006_
*232 _3072_
*233 _3028_
*234 _3050_
*235 _766_
*236 _2915_
*237 _3250_
*238 _3228_
*239 _3206_
*240 _3184_
*241 _3096_
*242 _2917_
*243 _3118_
*244 _3140_
*245 _3162_
*246 _2942_
*247 _3030_
*248 _3052_
*249 _3008_
*250 _3074_
*251 _2986_
*252 _2964_
*253 _767_
*254 _2916_
*255 _3250_
*256 _3228_
*257 _3206_
*258 _3184_
*259 _3096_
*260 _2917_
*261 _3118_
*262 _3140_
*263 _3162_
*264 _2942_
*265 _2964_
*266 _2986_
*267 _3074_
*268 _3008_
*269 _3052_
*270 _3030_
*271 _770_
*272 _2919_
*273 _3185_
*274 _3229_
*275 _3207_
*276 _3251_
*277 _3097_
*278 _2921_
*279 _2943_
*280 _2965_
*281 _2987_
*282 _3075_
*283 _3053_
*284 _3009_
*285 _3031_
*286 _3163_
*287 _3119_
*288 _3141_
*289 _771_
*290 _2920_
*291 _3185_
*292 _3229_
*293 _3207_
*294 _3251_
*295 _3097_
*296 _2921_
*297 _3163_
*298 _3141_
*299 _3119_
*300 _2943_
*301 _2965_
*302 _2987_
*303 _3053_
*304 _3009_
*305 _3075_
*306 _3031_
*307 _1194_
*308 _3296_
*309 _3405_
*310 _3349_
*311 _3391_
*312 _3314_
*313 _3384_
*314 _3342_
*315 _3328_
*316 _3307_
*317 _3363_
*318 _3398_
*319 _3321_
*320 _3356_
*321 _3335_
*322 _3377_
*323 _3412_
*324 _3370_
*325 _1196_
*326 _3298_
*327 _3353_
*328 _3346_
*329 _3332_
*330 _3325_
*331 _3339_
*332 _3402_
*333 _3395_
*334 _3318_
*335 _3360_
*336 _3301_
*337 _3367_
*338 _3381_
*339 _3374_
*340 _3388_
*341 _3311_
*342 _3409_
*343 _1198_
*344 _3300_
*345 _3339_
*346 _3402_
*347 _3395_
*348 _3318_
*349 _3353_
*350 _3346_
*351 _3332_
*352 _3325_
*353 _3360_
*354 _3301_
*355 _3367_
*356 _3381_
*357 _3374_
*358 _3388_
*359 _3311_
*360 _3409_
*361 _1201_
*362 _3303_
*363 _3355_
*364 _3411_
*365 _3327_
*366 _3362_
*367 _3397_
*368 _3348_
*369 _3334_
*370 _3369_
*371 _3320_
*372 _3376_
*373 _3313_
*374 _3383_
*375 _3306_
*376 _3390_
*377 _3404_
*378 _3341_
*379 _1203_
*380 _3305_
*381 _3376_
*382 _3313_
*383 _3383_
*384 _3306_
*385 _3348_
*386 _3334_
*387 _3369_
*388 _3320_
*389 _3390_
*390 _3404_
*391 _3341_
*392 _3327_
*393 _3355_
*394 _3411_
*395 _3397_
*396 _3362_
*397 _1411_
*398 _3529_
*399 _3571_
*400 _3553_
*401 _3565_
*402 _3538_
*403 _3544_
*404 _3550_
*405 _3541_
*406 _3547_
*407 _3532_
*408 _3535_
*409 _3574_
*410 _3556_
*411 _3568_
*412 _3559_
*413 _3577_
*414 _3562_
*415 _1412_
*416 _3530_
*417 _3564_
*418 _3537_
*419 _3543_
*420 _3552_
*421 _3570_
*422 _3576_
*423 _3561_
*424 _3558_
*425 _3567_
*426 _3534_
*427 _3540_
*428 _3546_
*429 _3531_
*430 _3555_
*431 _3573_
*432 _3549_
*433 _1532_
*434 _3746_
*435 _3780_
*436 _3879_
*437 _3901_
*438 _3923_
*439 _3857_
*440 _3890_
*441 _3868_
*442 _3802_
*443 _3824_
*444 _3835_
*445 _3791_
*446 _3769_
*447 _3813_
*448 _3756_
*449 _3912_
*450 _3846_
*451 _1714_
*452 _3960_
*453 _3992_
*454 _4014_
*455 _4047_
*456 _4091_
*457 _4003_
*458 _3981_
*459 _4025_
*460 _3970_
*461 _4124_
*462 _4058_
*463 _4102_
*464 _4069_
*465 _4135_
*466 _4113_
*467 _4080_
*468 _4036_
*469 _1945_
*470 _4334_
*471 _4435_
*472 _4409_
*473 _4429_
*474 _4421_
*475 _4415_
*476 _4396_
*477 _4403_
*478 _4384_
*479 _4372_
*480 _4378_
*481 _4365_
*482 _4352_
*483 _4358_
*484 _4335_
*485 _4346_
*486 _4391_
*487 _1948_
*488 _4337_
*489 _4434_
*490 _4408_
*491 _4420_
*492 _4428_
*493 _4414_
*494 _4402_
*495 _4395_
*496 _4339_
*497 _4383_
*498 _4390_
*499 _4371_
*500 _4377_
*501 _4364_
*502 _4345_
*503 _4351_
*504 _4357_
*505 _1949_
*506 _4338_
*507 _4435_
*508 _4421_
*509 _4429_
*510 _4415_
*511 _4396_
*512 _4403_
*513 _4384_
*514 _4372_
*515 _4365_
*516 _4378_
*517 _4391_
*518 _4339_
*519 _4346_
*520 _4352_
*521 _4358_
*522 _4409_
*523 clock_bF_buf7
*524 CLKBUF1_insert28
*525 _4255_
*526 _3520_
*527 _4237_
*528 _4225_
*529 _4241_
*530 _3507_
*531 _3517_
*532 _4223_
*533 _4273_
*534 _4253_
*535 _4193_
*536 _4207_
*537 _3516_
*538 _4239_
*539 _4257_
*540 clock_bF_buf8
*541 CLKBUF1_insert27
*542 _4278_
*543 _4286_
*544 _4230_
*545 _4264_
*546 _4210_
*547 _4178_
*548 _4182_
*549 _4221_
*550 _4173_
*551 _4198_
*552 _4274_
*553 _4267_
*554 _4290_
*555 _4175_
*556 _4246_
*557 clock_bF_buf9
*558 CLKBUF1_insert26
*559 _4206_
*560 _4262_
*561 _4240_
*562 _4251_
*563 _4177_
*564 _4322_
*565 _4299_
*566 _4318_
*567 _4302_
*568 _4301_
*569 _4304_
*570 _4317_
*571 _4315_
*572 _4235_
*573 _4300_
*574 clock_bF_buf10
*575 CLKBUF1_insert25
*576 _4232_
*577 _4202_
*578 _4276_
*579 _4292_
*580 _4229_
*581 _4293_
*582 _4277_
*583 _4282_
*584 _4213_
*585 _4261_
*586 _4245_
*587 _4228_
*588 _4298_
*589 _4197_
*590 _4196_
*591 clock_bF_buf11
*592 CLKBUF1_insert24
*593 _4306_
*594 _4321_
*595 _4209_
*596 _3292_
*597 _4450_
*598 _4451_
*599 _4452_
*600 _4448_
*601 _4446_
*602 _3500_
*603 _3290_
*604 _3293_
*605 _3511_
*606 _3291_
*607 _3294_
*608 clock_bF_buf12
*609 CLKBUF1_insert23
*610 _4320_
*611 _4449_
*612 _4447_
*613 _4445_
*614 _4437_
*615 _4444_
*616 _4438_
*617 _4305_
*618 _4319_
*619 _4439_
*620 _4442_
*621 _4443_
*622 _4441_
*623 _4440_
*624 _4303_
*625 clock_bF_buf13
*626 CLKBUF1_insert22
*627 _4279_
*628 _4201_
*629 _4199_
*630 _4183_
*631 _4260_
*632 _4281_
*633 _4263_
*634 _4295_
*635 _4266_
*636 _4231_
*637 _4215_
*638 _4247_
*639 _4250_
*640 _4218_
*641 _4181_
*642 clock
*643 CLKBUF1_insert25
*644 CLKBUF1_insert30
*645 CLKBUF1_insert22
*646 CLKBUF1_insert35
*647 CLKBUF1_insert32
*648 CLKBUF1_insert31
*649 CLKBUF1_insert26
*650 CLKBUF1_insert24
*651 CLKBUF1_insert23
*652 CLKBUF1_insert28
*653 CLKBUF1_insert34
*654 CLKBUF1_insert27
*655 CLKBUF1_insert29
*656 CLKBUF1_insert33
*657 clock_bF_buf0
*658 CLKBUF1_insert35
*659 _4224_
*660 _4297_
*661 _4265_
*662 _4288_
*663 _4291_
*664 _4195_
*665 _4233_
*666 _4185_
*667 _4249_
*668 _4179_
*669 _4252_
*670 _4259_
*671 _4211_
*672 _4217_
*673 clock_bF_buf1
*674 CLKBUF1_insert34
*675 _4296_
*676 _4280_
*677 _4184_
*678 _4248_
*679 _4200_
*680 _4216_
*681 _4242_
*682 _4244_
*683 _4234_
*684 _4268_
*685 _4186_
*686 _4180_
*687 _4258_
*688 _4270_
*689 clock_bF_buf2
*690 CLKBUF1_insert33
*691 _3514_
*692 _3521_
*693 _3508_
*694 _3505_
*695 _3518_
*696 _3512_
*697 _3510_
*698 _3509_
*699 _3503_
*700 _3519_
*701 _3502_
*702 _3501_
*703 _3504_
*704 _3513_
*705 clock_bF_buf3
*706 CLKBUF1_insert32
*707 _4307_
*708 _4327_
*709 _4330_
*710 _4309_
*711 _4329_
*712 _4328_
*713 _4325_
*714 _4323_
*715 _4324_
*716 _4311_
*717 _4308_
*718 _4275_
*719 _4272_
*720 _4227_
*721 clock_bF_buf4
*722 CLKBUF1_insert31
*723 _4219_
*724 _4204_
*725 _4220_
*726 _4284_
*727 _4194_
*728 _4172_
*729 _4176_
*730 _4174_
*731 _4254_
*732 _4203_
*733 _4238_
*734 _4283_
*735 _4190_
*736 _4187_
*737 clock_bF_buf5
*738 CLKBUF1_insert30
*739 _4212_
*740 _4236_
*741 _4188_
*742 _4192_
*743 _4243_
*744 _4312_
*745 _4208_
*746 _4313_
*747 _4326_
*748 _4314_
*749 _4310_
*750 _4171_
*751 _4256_
*752 _4316_
*753 clock_bF_buf6
*754 CLKBUF1_insert29
*755 _4271_
*756 _4191_
*757 _4289_
*758 _4285_
*759 _4189_
*760 _4269_
*761 _4205_
*762 _4214_
*763 _4222_
*764 _4226_
*765 _4294_
*766 _4287_
*767 _3506_
*768 _3515_
*769 \alu_inst01_inst12_sel\[3]
*770 _3512_
*771 _3477_
*772 _3303_
*773 _3258_
*774 _3263_
*775 _3277_
*776 _3298_
*777 _2902_
*778 _2887_
*779 _2918_
*780 ERROR
*781 _1942_
*782 _4331_
*783 _4430_
*784 _4436_
*785 _4410_
*786 _4404_
*787 _4340_
*788 _4385_
*789 _4347_
*790 _4373_
*791 _4353_
*792 _4359_
*793 _4366_
*794 _4379_
*795 _4392_
*796 \alu_inst01_inst12_sel\[1]
*797 _3510_
*798 _3471_
*799 _3261_
*800 _3303_
*801 _3279_
*802 _3256_
*803 _3298_
*804 _2901_
*805 _2878_
*806 _2896_
*807 _2915_
*808 _2876_
*809 \alu_inst01_inst12_sel\[0]
*810 _3509_
*811 _3468_
*812 _3261_
*813 _3304_
*814 _3257_
*815 _3278_
*816 _3300_
*817 _2901_
*818 _2876_
*819 _2879_
*820 _2916_
*821 _2895_
*822 \instruction_decoder_inst_08_rBadrs_1_bF_buf7\
*823 BUFX2_insert254
*824 _3829_
*825 _3896_
*826 _3900_
*827 _3899_
*828 _3895_
*829 _3877_
*830 _3878_
*831 _3767_
*832 _3768_
*833 \instruction_decoder_inst_08_rAadrs_0_bF_buf6\
*834 BUFX2_insert193
*835 _3449_
*836 _4010_
*837 _3988_
*838 _3986_
*839 _3984_
*840 _4032_
*841 _4008_
*842 _4006_
*843 _4012_
*844 \instruction_decoder_inst_08_rAadrs_0_bF_buf7\
*845 BUFX2_insert192
*846 _4078_
*847 _4076_
*848 _4072_
*849 _4127_
*850 _4094_
*851 _4096_
*852 _4100_
*853 _4098_
*854 _4074_
*855 \instruction_decoder_inst_08_rAadrs_1_bF_buf7\
*856 BUFX2_insert119
*857 _3968_
*858 _3969_
*859 _3976_
*860 _3975_
*861 _4020_
*862 _4019_
*863 _3965_
*864 _3964_
*865 _3998_
*866 \instruction_decoder_inst_08_rBadrs_0_bF_buf6\
*867 BUFX2_insert83
*868 _3906_
*869 _3910_
*870 _3844_
*871 _3809_
*872 _3842_
*873 _3838_
*874 _3840_
*875 _3811_
*876 _3904_
*877 \instruction_decoder_inst_08_rBadrs_0_bF_buf7\
*878 BUFX2_insert82
*879 _3752_
*880 _3785_
*881 _3833_
*882 _3748_
*883 _3871_
*884 _3831_
*885 _3789_
*886 _3873_
*887 _3829_
*888 \instruction_decoder_inst_08_rBadrs\[1]
*889 _3520_
*890 BUFX2_insert255
*891 BUFX2_insert259
*892 BUFX2_insert254
*893 BUFX2_insert258
*894 BUFX2_insert257
*895 BUFX2_insert256
*896 BUFX2_insert261
*897 BUFX2_insert260
*898 \instruction_decoder_inst_08_rBadrs_1_bF_buf0\
*899 BUFX2_insert261
*900 _3911_
*901 _3910_
*902 _3907_
*903 _3844_
*904 _3845_
*905 _3840_
*906 _3841_
*907 _3906_
*908 \instruction_decoder_inst_08_rBadrs_1_bF_buf1\
*909 BUFX2_insert260
*910 _3921_
*911 _3922_
*912 _3862_
*913 _3863_
*914 _3855_
*915 _3856_
*916 _3866_
*917 _3867_
*918 \instruction_decoder_inst_08_rBadrs_1_bF_buf2\
*919 BUFX2_insert259
*920 _3823_
*921 _3874_
*922 _3789_
*923 _3873_
*924 _3778_
*925 _3775_
*926 _3774_
*927 _3779_
*928 \instruction_decoder_inst_08_rBadrs_1_bF_buf3\
*929 BUFX2_insert258
*930 _3918_
*931 _3884_
*932 _3885_
*933 _3888_
*934 _3889_
*935 _3917_
*936 _3852_
*937 _3851_
*938 \instruction_decoder_inst_08_rBadrs_1_bF_buf4\
*939 BUFX2_insert257
*940 _3764_
*941 _3763_
*942 _3807_
*943 _3811_
*944 _3812_
*945 _3808_
*946 _3750_
*947 _3751_
*948 \instruction_decoder_inst_08_rBadrs_1_bF_buf5\
*949 BUFX2_insert256
*950 _3755_
*951 _3754_
*952 _3786_
*953 _3785_
*954 _3833_
*955 _3834_
*956 _3830_
*957 _3790_
*958 \instruction_decoder_inst_08_rBadrs_1_bF_buf6\
*959 BUFX2_insert255
*960 _3797_
*961 _3796_
*962 _3822_
*963 _3801_
*964 _3800_
*965 _3443_
*966 _3818_
*967 _3819_
*968 \instruction_decoder_inst_08_rAadrs\[0]
*969 _3516_
*970 BUFX2_insert198
*971 BUFX2_insert197
*972 BUFX2_insert194
*973 BUFX2_insert195
*974 BUFX2_insert199
*975 BUFX2_insert196
*976 BUFX2_insert192
*977 BUFX2_insert193
*978 \instruction_decoder_inst_08_rAadrs_0_bF_buf0\
*979 BUFX2_insert199
*980 _4085_
*981 _3990_
*982 _4045_
*983 _4083_
*984 _3997_
*985 _4028_
*986 _4030_
*987 _4034_
*988 \instruction_decoder_inst_08_rAadrs_0_bF_buf1\
*989 BUFX2_insert198
*990 _4105_
*991 _4089_
*992 _4041_
*993 _4001_
*994 _4043_
*995 _4039_
*996 _3999_
*997 _4087_
*998 \instruction_decoder_inst_08_rAadrs_0_bF_buf2\
*999 BUFX2_insert197
*1000 _3977_
*1001 _3979_
*1002 _4061_
*1003 _4063_
*1004 _3962_
*1005 _4118_
*1006 _4023_
*1007 _3973_
*1008 \instruction_decoder_inst_08_rAadrs_0_bF_buf3\
*1009 BUFX2_insert196
*1010 _4067_
*1011 _4065_
*1012 _4131_
*1013 _4133_
*1014 _4129_
*1015 _4111_
*1016 _4107_
*1017 _4109_
*1018 \instruction_decoder_inst_08_rAadrs_0_bF_buf4\
*1019 BUFX2_insert195
*1020 _4116_
*1021 _4122_
*1022 _4120_
*1023 _4021_
*1024 _4056_
*1025 _4054_
*1026 _4052_
*1027 _4050_
*1028 \instruction_decoder_inst_08_rAadrs_0_bF_buf5\
*1029 BUFX2_insert194
*1030 _3968_
*1031 _3966_
*1032 _3995_
*1033 _3975_
*1034 _4019_
*1035 _4017_
*1036 _3964_
*1037 _3961_
*1038 \instruction_decoder_inst_08_rAadrs\[1]
*1039 _3517_
*1040 BUFX2_insert121
*1041 BUFX2_insert125
*1042 BUFX2_insert123
*1043 BUFX2_insert120
*1044 BUFX2_insert122
*1045 BUFX2_insert119
*1046 BUFX2_insert124
*1047 BUFX2_insert126
*1048 \instruction_decoder_inst_08_rAadrs_1_bF_buf0\
*1049 BUFX2_insert126
*1050 _4133_
*1051 _4134_
*1052 _4068_
*1053 _4075_
*1054 _4074_
*1055 _4079_
*1056 _4078_
*1057 _4067_
*1058 \instruction_decoder_inst_08_rAadrs_1_bF_buf1\
*1059 BUFX2_insert125
*1060 _4090_
*1061 _4089_
*1062 _4041_
*1063 _4042_
*1064 _4001_
*1065 _4002_
*1066 _4046_
*1067 _4045_
*1068 \instruction_decoder_inst_08_rAadrs_1_bF_buf2\
*1069 BUFX2_insert124
*1070 _3997_
*1071 _4031_
*1072 _4030_
*1073 _4086_
*1074 _4085_
*1075 _3990_
*1076 _4035_
*1077 _4034_
*1078 \instruction_decoder_inst_08_rAadrs_1_bF_buf3\
*1079 BUFX2_insert123
*1080 _3980_
*1081 _3979_
*1082 _4111_
*1083 _4107_
*1084 _4112_
*1085 _4108_
*1086 _4130_
*1087 _4129_
*1088 \instruction_decoder_inst_08_rAadrs_1_bF_buf4\
*1089 BUFX2_insert122
*1090 _4023_
*1091 _4024_
*1092 _4123_
*1093 _4122_
*1094 _4056_
*1095 _4057_
*1096 _4053_
*1097 _4052_
*1098 \instruction_decoder_inst_08_rAadrs_1_bF_buf5\
*1099 BUFX2_insert121
*1100 _4008_
*1101 _4009_
*1102 _3452_
*1103 _4013_
*1104 _4012_
*1105 _3987_
*1106 _3991_
*1107 _3986_
*1108 \instruction_decoder_inst_08_rAadrs_1_bF_buf6\
*1109 BUFX2_insert120
*1110 _4119_
*1111 _4118_
*1112 _4101_
*1113 _4100_
*1114 _4097_
*1115 _4096_
*1116 _4063_
*1117 _4064_
*1118 _1544_
*1119 _3758_
*1120 BUFX2_insert102
*1121 BUFX2_insert100
*1122 BUFX2_insert101
*1123 BUFX2_insert104
*1124 BUFX2_insert103
*1125 BUFX2_insert105
*1126 BUFX2_insert99
*1127 BUFX2_insert106
*1128 _1544__bF_buf0
*1129 BUFX2_insert106
*1130 _3902_
*1131 _3913_
*1132 _3914_
*1133 _3891_
*1134 _3858_
*1135 _3924_
*1136 _3925_
*1137 _3892_
*1138 _1544__bF_buf1
*1139 BUFX2_insert105
*1140 _4136_
*1141 _3903_
*1142 _4137_
*1143 _3859_
*1144 _4070_
*1145 _4071_
*1146 _4059_
*1147 _4060_
*1148 _1544__bF_buf2
*1149 BUFX2_insert104
*1150 _3836_
*1151 _3793_
*1152 _4049_
*1153 _3837_
*1154 _4093_
*1155 _4092_
*1156 _3972_
*1157 _4048_
*1158 _1544__bF_buf3
*1159 BUFX2_insert103
*1160 _3880_
*1161 _3770_
*1162 _3771_
*1163 _3881_
*1164 _4114_
*1165 _4115_
*1166 _4125_
*1167 _4126_
*1168 _1544__bF_buf4
*1169 BUFX2_insert102
*1170 _3815_
*1171 _4016_
*1172 _4015_
*1173 _3804_
*1174 _3814_
*1175 _3803_
*1176 _4038_
*1177 _4037_
*1178 _1544__bF_buf5
*1179 BUFX2_insert101
*1180 _4004_
*1181 _4027_
*1182 _4026_
*1183 _3760_
*1184 _3971_
*1185 _3982_
*1186 _3983_
*1187 _3759_
*1188 _1544__bF_buf6
*1189 BUFX2_insert100
*1190 _3994_
*1191 _3993_
*1192 _3781_
*1193 _3782_
*1194 _4005_
*1195 _3792_
*1196 _3825_
*1197 _3826_
*1198 _1544__bF_buf7
*1199 BUFX2_insert99
*1200 _3848_
*1201 _3847_
*1202 _3869_
*1203 _3870_
*1204 _4103_
*1205 _4104_
*1206 _4081_
*1207 _4082_
*1208 \instruction_decoder_inst_08_rBadrs\[0]
*1209 _3519_
*1210 BUFX2_insert87
*1211 BUFX2_insert85
*1212 BUFX2_insert82
*1213 BUFX2_insert83
*1214 BUFX2_insert86
*1215 BUFX2_insert88
*1216 BUFX2_insert84
*1217 BUFX2_insert89
*1218 \instruction_decoder_inst_08_rBadrs_0_bF_buf0\
*1219 BUFX2_insert89
*1220 _3763_
*1221 _3761_
*1222 _3807_
*1223 _3805_
*1224 _3750_
*1225 _3783_
*1226 _3754_
*1227 _3747_
*1228 \instruction_decoder_inst_08_rBadrs_0_bF_buf1\
*1229 BUFX2_insert88
*1230 _3765_
*1231 _3767_
*1232 _3849_
*1233 _3827_
*1234 _3895_
*1235 _3899_
*1236 _3897_
*1237 _3893_
*1238 \instruction_decoder_inst_08_rBadrs_0_bF_buf2\
*1239 BUFX2_insert87
*1240 _3440_
*1241 _3798_
*1242 _3774_
*1243 _3772_
*1244 _3820_
*1245 _3796_
*1246 _3800_
*1247 _3794_
*1248 \instruction_decoder_inst_08_rBadrs_0_bF_buf3\
*1249 BUFX2_insert86
*1250 _3908_
*1251 _3886_
*1252 _3888_
*1253 _3884_
*1254 _3851_
*1255 _3915_
*1256 _3917_
*1257 _3882_
*1258 \instruction_decoder_inst_08_rBadrs_0_bF_buf4\
*1259 BUFX2_insert85
*1260 _3816_
*1261 _3818_
*1262 _3822_
*1263 _3778_
*1264 _3776_
*1265 _3875_
*1266 _3787_
*1267 _3877_
*1268 \instruction_decoder_inst_08_rBadrs_0_bF_buf5\
*1269 BUFX2_insert84
*1270 _3921_
*1271 _3862_
*1272 _3860_
*1273 _3866_
*1274 _3864_
*1275 _3855_
*1276 _3853_
*1277 _3919_
*1278 _1404_
*1279 _3522_
*1280 _3648_
*1281 _3581_
*1282 _3682_
*1283 _3929_
*1284 _4140_
*1285 _3715_
*1286 _3615_
*1287 _3532_
*1288 _1414_
*1289 _3533_
*1290 _3535_
*1291 _3583_
*1292 _3684_
*1293 _3617_
*1294 _3717_
*1295 _4142_
*1296 _3931_
*1297 _3650_
*1298 _1416_
*1299 _3536_
*1300 _3619_
*1301 _3719_
*1302 _3585_
*1303 _4144_
*1304 _3686_
*1305 _3933_
*1306 _3652_
*1307 _3538_
*1308 _1418_
*1309 _3539_
*1310 _3621_
*1311 _3541_
*1312 _3654_
*1313 _3587_
*1314 _3688_
*1315 _3721_
*1316 _3935_
*1317 _4146_
*1318 _1420_
*1319 _3542_
*1320 _3544_
*1321 _3656_
*1322 _3623_
*1323 _3589_
*1324 _3723_
*1325 _4148_
*1326 _3690_
*1327 _3937_
*1328 _1422_
*1329 _3545_
*1330 _3625_
*1331 _3547_
*1332 _3692_
*1333 _3591_
*1334 _3658_
*1335 _3939_
*1336 _4150_
*1337 _3725_
*1338 _1424_
*1339 _3548_
*1340 _3660_
*1341 _3593_
*1342 _3550_
*1343 _3627_
*1344 _3727_
*1345 _3694_
*1346 _3941_
*1347 _4152_
*1348 _1426_
*1349 _3551_
*1350 _3696_
*1351 _4154_
*1352 _3943_
*1353 _3595_
*1354 _3662_
*1355 _3553_
*1356 _3729_
*1357 _3629_
*1358 _1428_
*1359 _3554_
*1360 _3631_
*1361 _3664_
*1362 _3556_
*1363 _3597_
*1364 _3731_
*1365 _3945_
*1366 _4156_
*1367 _3698_
*1368 _1430_
*1369 _3557_
*1370 _3599_
*1371 _3666_
*1372 _3559_
*1373 _3633_
*1374 _3700_
*1375 _3947_
*1376 _4158_
*1377 _3733_
*1378 _1432_
*1379 _3560_
*1380 _3562_
*1381 _3702_
*1382 _3601_
*1383 _3668_
*1384 _3635_
*1385 _3949_
*1386 _4160_
*1387 _3735_
*1388 _1434_
*1389 _3563_
*1390 _3670_
*1391 _3637_
*1392 _3565_
*1393 _3704_
*1394 _3737_
*1395 _4162_
*1396 _3951_
*1397 _3603_
*1398 _1436_
*1399 _3566_
*1400 _3568_
*1401 _3706_
*1402 _3739_
*1403 _4164_
*1404 _3672_
*1405 _3953_
*1406 _3639_
*1407 _3605_
*1408 _1438_
*1409 _3569_
*1410 _3607_
*1411 _3641_
*1412 _3674_
*1413 _3571_
*1414 _4166_
*1415 _3955_
*1416 _3741_
*1417 _3708_
*1418 _1440_
*1419 _3572_
*1420 _3643_
*1421 _3609_
*1422 _3574_
*1423 _3710_
*1424 _3676_
*1425 _3957_
*1426 _4168_
*1427 _3743_
*1428 _1442_
*1429 _3575_
*1430 _3577_
*1431 _3745_
*1432 _3611_
*1433 _3645_
*1434 _3678_
*1435 _3959_
*1436 _4170_
*1437 _3712_
*1438 reset_bF_buf2
*1439 BUFX2_insert270
*1440 _4417_
*1441 _4398_
*1442 _4423_
*1443 _3527_
*1444 _3275_
*1445 _3274_
*1446 _3438_
*1447 reset_bF_buf3
*1448 BUFX2_insert269
*1449 _4125_
*1450 _4136_
*1451 _3858_
*1452 _3902_
*1453 _3913_
*1454 _3924_
*1455 _3891_
*1456 reset_bF_buf4
*1457 BUFX2_insert268
*1458 _3993_
*1459 _3825_
*1460 _4015_
*1461 _4037_
*1462 _3814_
*1463 _3803_
*1464 _4331_
*1465 reset_bF_buf5
*1466 BUFX2_insert267
*1467 _3971_
*1468 _3982_
*1469 _3759_
*1470 _4026_
*1471 _3770_
*1472 _3880_
*1473 _4114_
*1474 _1498__bF_buf3
*1475 BUFX2_insert232
*1476 _3685_
*1477 _3686_
*1478 _3694_
*1479 _3693_
*1480 _3689_
*1481 _3690_
*1482 _3704_
*1483 _1498__bF_buf4
*1484 BUFX2_insert231
*1485 _3708_
*1486 _3707_
*1487 _3700_
*1488 _3701_
*1489 _3702_
*1490 _3712_
*1491 _3711_
*1492 _1463__bF_buf3
*1493 BUFX2_insert227
*1494 _3642_
*1495 _3643_
*1496 _3616_
*1497 _3617_
*1498 _3631_
*1499 _3630_
*1500 _3614_
*1501 _1463__bF_buf4
*1502 BUFX2_insert226
*1503 _3637_
*1504 _3636_
*1505 _3620_
*1506 _3621_
*1507 _3625_
*1508 _3624_
*1509 _3615_
*1510 _1716__bF_buf3
*1511 BUFX2_insert210
*1512 _4062_
*1513 _4128_
*1514 _4066_
*1515 _4073_
*1516 _4077_
*1517 _4132_
*1518 _4110_
*1519 _1716__bF_buf4
*1520 BUFX2_insert209
*1521 _4084_
*1522 _3989_
*1523 _4033_
*1524 _3985_
*1525 _4011_
*1526 _4007_
*1527 _4029_
*1528 _1534__bF_buf3
*1529 BUFX2_insert205
*1530 _3850_
*1531 _3916_
*1532 _3920_
*1533 _3861_
*1534 _3854_
*1535 _3865_
*1536 _3898_
*1537 _1534__bF_buf4
*1538 BUFX2_insert204
*1539 _3766_
*1540 _3762_
*1541 _3806_
*1542 _3810_
*1543 _3749_
*1544 _3784_
*1545 _3753_
*1546 \address_mux_inst_05_adrs_ctrl_bF_buf3\
*1547 BUFX2_insert184
*1548 _2069_
*1549 _2063_
*1550 _2072_
*1551 _2066_
*1552 _2067_
*1553 _2073_
*1554 _2064_
*1555 \address_mux_inst_05_adrs_ctrl_bF_buf4\
*1556 BUFX2_insert183
*1557 _2055_
*1558 _2058_
*1559 _2088_
*1560 _2087_
*1561 _2076_
*1562 _2075_
*1563 _2070_
*1564 \control_unit_ints_09_flag\
*1565 _3500_
*1566 BUFX2_insert166
*1567 BUFX2_insert164
*1568 BUFX2_insert168
*1569 BUFX2_insert165
*1570 BUFX2_insert167
*1571 BUFX2_insert162
*1572 BUFX2_insert163
*1573 \control_unit_ints_09_flag_bF_buf0\
*1574 BUFX2_insert168
*1575 _4494_
*1576 _3425_
*1577 _3430_
*1578 _3421_
*1579 _3415_
*1580 _4493_
*1581 _3427_
*1582 \control_unit_ints_09_flag_bF_buf1\
*1583 BUFX2_insert167
*1584 _4455_
*1585 _4461_
*1586 _4481_
*1587 _4464_
*1588 _4482_
*1589 _4485_
*1590 _4484_
*1591 \control_unit_ints_09_flag_bF_buf2\
*1592 BUFX2_insert166
*1593 _3431_
*1594 _3437_
*1595 _3498_
*1596 _3429_
*1597 _3432_
*1598 _3434_
*1599 _3419_
*1600 \control_unit_ints_09_flag_bF_buf3\
*1601 BUFX2_insert165
*1602 _4496_
*1603 _4497_
*1604 _4488_
*1605 _4487_
*1606 _4454_
*1607 _4490_
*1608 _4491_
*1609 \control_unit_ints_09_flag_bF_buf4\
*1610 BUFX2_insert164
*1611 _3433_
*1612 _3435_
*1613 _3436_
*1614 _3417_
*1615 _3423_
*1616 _4499_
*1617 _4500_
*1618 \control_unit_ints_09_flag_bF_buf5\
*1619 BUFX2_insert163
*1620 _4460_
*1621 _4458_
*1622 _4457_
*1623 _4470_
*1624 _4475_
*1625 _4463_
*1626 _4476_
*1627 \control_unit_ints_09_flag_bF_buf6\
*1628 BUFX2_insert162
*1629 _4469_
*1630 _4478_
*1631 _4467_
*1632 _4473_
*1633 _4472_
*1634 _4466_
*1635 _4479_
*1636 _1876__bF_buf3
*1637 BUFX2_insert73
*1638 _4146_
*1639 _4145_
*1640 _4162_
*1641 _4161_
*1642 _4165_
*1643 _4166_
*1644 _4170_
*1645 _1876__bF_buf4
*1646 BUFX2_insert72
*1647 _4163_
*1648 _4167_
*1649 _4168_
*1650 _4150_
*1651 _4149_
*1652 _4155_
*1653 _4156_
*1654 _1515__bF_buf3
*1655 BUFX2_insert68
*1656 _3738_
*1657 _3742_
*1658 _3725_
*1659 _3724_
*1660 _3743_
*1661 _3730_
*1662 _3731_
*1663 _1515__bF_buf4
*1664 BUFX2_insert67
*1665 _3735_
*1666 _3734_
*1667 _3733_
*1668 _3732_
*1669 _3741_
*1670 _3740_
*1671 _3744_
*1672 _1697__bF_buf3
*1673 BUFX2_insert37
*1674 _3952_
*1675 _3956_
*1676 _3957_
*1677 _3938_
*1678 _3939_
*1679 _3945_
*1680 _3944_
*1681 _1697__bF_buf4
*1682 BUFX2_insert36
*1683 _3951_
*1684 _3932_
*1685 _3933_
*1686 _3937_
*1687 _3936_
*1688 _3941_
*1689 _3940_
*1690 _1480__bF_buf3
*1691 BUFX2_insert14
*1692 _3674_
*1693 _3668_
*1694 _3667_
*1695 _3677_
*1696 _3678_
*1697 _3671_
*1698 _3672_
*1699 _1480__bF_buf4
*1700 BUFX2_insert13
*1701 _3652_
*1702 _3651_
*1703 _3655_
*1704 _3656_
*1705 _3662_
*1706 _3661_
*1707 _3673_
*1708 _1445__bF_buf3
*1709 BUFX2_insert5
*1710 _3606_
*1711 _3610_
*1712 _3611_
*1713 _3605_
*1714 _3604_
*1715 _3600_
*1716 _3601_
*1717 _1445__bF_buf4
*1718 BUFX2_insert4
*1719 _3582_
*1720 _3608_
*1721 _3609_
*1722 _3590_
*1723 _3591_
*1724 _3596_
*1725 _3597_
*1726 \internal_register_inst_07_ra_out_1_bF_buf0\
*1727 BUFX2_insert276
*1728 _2732_
*1729 _2100_
*1730 _2823_
*1731 _2826_
*1732 _2101_
*1733 _2866_
*1734 \internal_register_inst_07_ra_out_1_bF_buf1\
*1735 BUFX2_insert275
*1736 _2291_
*1737 _2275_
*1738 _2655_
*1739 _2353_
*1740 _2540_
*1741 _2539_
*1742 \internal_register_inst_07_ra_out_1_bF_buf2\
*1743 BUFX2_insert274
*1744 _2337_
*1745 _2336_
*1746 _2650_
*1747 _2230_
*1748 _2646_
*1749 _2229_
*1750 \internal_register_inst_07_ra_out_1_bF_buf3\
*1751 BUFX2_insert273
*1752 _2387_
*1753 _3982_
*1754 _4457_
*1755 _2054_
*1756 _2390_
*1757 _2400_
*1758 reset
*1759 BUFX2_insert271
*1760 BUFX2_insert269
*1761 BUFX2_insert267
*1762 BUFX2_insert272
*1763 BUFX2_insert270
*1764 BUFX2_insert268
*1765 reset_bF_buf0
*1766 BUFX2_insert272
*1767 _3836_
*1768 _3792_
*1769 _4004_
*1770 _4092_
*1771 _4048_
*1772 _3781_
*1773 reset_bF_buf1
*1774 BUFX2_insert271
*1775 _4103_
*1776 _3869_
*1777 _3847_
*1778 _4081_
*1779 _4070_
*1780 _4059_
*1781 \internal_register_inst_07_ra_out_4_bF_buf4\
*1782 BUFX2_insert262
*1783 _2413_
*1784 _2360_
*1785 _2239_
*1786 _2238_
*1787 _4466_
*1788 _4015_
*1789 \internal_register_inst_07_ra_out_7_bF_buf2\
*1790 BUFX2_insert251
*1791 _2716_
*1792 _2557_
*1793 _2748_
*1794 _2211_
*1795 _2657_
*1796 _2715_
*1797 \internal_register_inst_07_ra_out_7_bF_buf3\
*1798 BUFX2_insert250
*1799 _4048_
*1800 _4475_
*1801 _2375_
*1802 _2374_
*1803 _2331_
*1804 _2332_
*1805 \internal_register_inst_07_ra_out_7_bF_buf4\
*1806 BUFX2_insert249
*1807 _2584_
*1808 _2583_
*1809 _2811_
*1810 _2144_
*1811 _2143_
*1812 _2840_
*1813 \internal_register_inst_07_rb_out_0_bF_buf3\
*1814 BUFX2_insert245
*1815 _2335_
*1816 _2334_
*1817 _2290_
*1818 _2649_
*1819 _2647_
*1820 _2384_
*1821 \internal_register_inst_07_ra_out_10_bF_buf1\
*1822 BUFX2_insert243
*1823 _2465_
*1824 _4081_
*1825 _2347_
*1826 _2348_
*1827 _2081_
*1828 _4484_
*1829 \internal_register_inst_07_ra_out_10_bF_buf2\
*1830 BUFX2_insert242
*1831 _2169_
*1832 _2548_
*1833 _2547_
*1834 _2170_
*1835 _2576_
*1836 _2622_
*1837 \internal_register_inst_07_ra_out_10_bF_buf3\
*1838 BUFX2_insert241
*1839 _2284_
*1840 _2300_
*1841 _2712_
*1842 _2380_
*1843 _2257_
*1844 _2256_
*1845 _1498__bF_buf0
*1846 BUFX2_insert235
*1847 _3695_
*1848 _3696_
*1849 _3687_
*1850 _3688_
*1851 _3682_
*1852 _3681_
*1853 _1498__bF_buf1
*1854 BUFX2_insert234
*1855 _3683_
*1856 _3684_
*1857 _3705_
*1858 _3706_
*1859 _3699_
*1860 _3703_
*1861 _1498__bF_buf2
*1862 BUFX2_insert233
*1863 _3691_
*1864 _3692_
*1865 _3709_
*1866 _3710_
*1867 _3698_
*1868 _3697_
*1869 _1463__bF_buf0
*1870 BUFX2_insert230
*1871 _3644_
*1872 _3645_
*1873 _3634_
*1874 _3635_
*1875 _3639_
*1876 _3638_
*1877 _1463__bF_buf1
*1878 BUFX2_insert229
*1879 _3633_
*1880 _3632_
*1881 _3628_
*1882 _3629_
*1883 _3641_
*1884 _3640_
*1885 _1463__bF_buf2
*1886 BUFX2_insert228
*1887 _3627_
*1888 _3626_
*1889 _3619_
*1890 _3618_
*1891 _3622_
*1892 _3623_
*1893 \internal_register_inst_07_ra_out_13_bF_buf0\
*1894 BUFX2_insert225
*1895 _2265_
*1896 _2266_
*1897 _2287_
*1898 _4114_
*1899 _4493_
*1900 _2090_
*1901 \internal_register_inst_07_ra_out_13_bF_buf1\
*1902 BUFX2_insert224
*1903 _2303_
*1904 _2609_
*1905 _2340_
*1906 _2341_
*1907 _2498_
*1908 _2500_
*1909 \internal_register_inst_07_ra_out_13_bF_buf2\
*1910 BUFX2_insert223
*1911 _2792_
*1912 _2793_
*1913 _2610_
*1914 _2669_
*1915 _2759_
*1916 _2846_
*1917 \internal_register_inst_07_ra_out_13_bF_buf3\
*1918 BUFX2_insert222
*1919 _2700_
*1920 _2368_
*1921 _2193_
*1922 _2194_
*1923 _2525_
*1924 _2524_
*1925 \internal_register_inst_07_rb_out_6_bF_buf0\
*1926 BUFX2_insert221
*1927 _2632_
*1928 _2628_
*1929 _2431_
*1930 _2428_
*1931 _2245_
*1932 _2244_
*1933 \internal_register_inst_07_rb_out_6_bF_buf1\
*1934 BUFX2_insert220
*1935 _2841_
*1936 _2812_
*1937 _2038_
*1938 _2139_
*1939 _2138_
*1940 _2371_
*1941 \internal_register_inst_07_rb_out_6_bF_buf2\
*1942 BUFX2_insert219
*1943 _2432_
*1944 _2296_
*1945 _2329_
*1946 _2330_
*1947 _2280_
*1948 _3825_
*1949 \internal_register_inst_07_rb_out_6_bF_buf3\
*1950 BUFX2_insert218
*1951 _2208_
*1952 _2585_
*1953 _2718_
*1954 _2558_
*1955 _2752_
*1956 _2717_
*1957 _1716__bF_buf0
*1958 BUFX2_insert213
*1959 _3978_
*1960 _3974_
*1961 _4022_
*1962 _4018_
*1963 _3963_
*1964 _3996_
*1965 _1716__bF_buf1
*1966 BUFX2_insert212
*1967 _3967_
*1968 _4044_
*1969 _4000_
*1970 _4040_
*1971 _4088_
*1972 _4106_
*1973 _1716__bF_buf2
*1974 BUFX2_insert211
*1975 _4099_
*1976 _4095_
*1977 _4121_
*1978 _4117_
*1979 _4051_
*1980 _4055_
*1981 _1534__bF_buf0
*1982 BUFX2_insert208
*1983 _3832_
*1984 _3828_
*1985 _3876_
*1986 _3894_
*1987 _3788_
*1988 _3872_
*1989 _1534__bF_buf1
*1990 BUFX2_insert207
*1991 _3817_
*1992 _3795_
*1993 _3821_
*1994 _3773_
*1995 _3799_
*1996 _3777_
*1997 _1534__bF_buf2
*1998 BUFX2_insert206
*1999 _3887_
*2000 _3883_
*2001 _3909_
*2002 _3905_
*2003 _3839_
*2004 _3843_
*2005 _1249__bF_buf2
*2006 BUFX2_insert201
*2007 _3471_
*2008 _3455_
*2009 _3495_
*2010 _3489_
*2011 _3459_
*2012 _3440_