* XSpice netlist created from SPICE and liberty sources by spi2xspice.py
*SPICE netlist created from verilog structural netlist module internal_register by vlog2Spice (qflow)
** Start of included library /usr/local/share/qflow/tech/osu035/osu035_stdcells.sp
** End of included library /usr/local/share/qflow/tech/osu035/osu035_stdcells.sp
.subckt internal_register a_vdd a_gnd a_clock a_data_in_0_ a_data_in_1_ a_data_in_2_ a_data_in_3_ a_data_in_4_ a_data_in_5_ a_data_in_6_ a_data_in_7_ a_data_in_8_ a_data_in_9_ a_data_in_10_ a_data_in_11_ a_data_in_12_ a_data_in_13_ a_data_in_14_ a_data_in_15_ a_enable a_ra_adrs_0_ a_ra_adrs_1_ a_ra_adrs_2_ a_ra_out_0_ a_ra_out_1_ a_ra_out_2_ a_ra_out_3_ a_ra_out_4_ a_ra_out_5_ a_ra_out_6_ a_ra_out_7_ a_ra_out_8_ a_ra_out_9_ a_ra_out_10_ a_ra_out_11_ a_ra_out_12_ a_ra_out_13_ a_ra_out_14_ a_ra_out_15_ a_rb_adrs_0_ a_rb_adrs_1_ a_rb_adrs_2_ a_rb_out_0_ a_rb_out_1_ a_rb_out_2_ a_rb_out_3_ a_rb_out_4_ a_rb_out_5_ a_rb_out_6_ a_rb_out_7_ a_rb_out_8_ a_rb_out_9_ a_rb_out_10_ a_rb_out_11_ a_rb_out_12_ a_rb_out_13_ a_rb_out_14_ a_rb_out_15_ a_rd_adrs_0_ a_rd_adrs_1_ a_rd_adrs_2_ a_wr_en
ABUFX2_insert122 [rb_adrs_1_] rb_adrs_1_bF$buf0 d_lut_BUFX2
ABUFX2_insert121 [rb_adrs_1_] rb_adrs_1_bF$buf1 d_lut_BUFX2
ABUFX2_insert120 [rb_adrs_1_] rb_adrs_1_bF$buf2 d_lut_BUFX2
ABUFX2_insert119 [rb_adrs_1_] rb_adrs_1_bF$buf3 d_lut_BUFX2
ABUFX2_insert118 [rb_adrs_1_] rb_adrs_1_bF$buf4 d_lut_BUFX2
ABUFX2_insert117 [rb_adrs_1_] rb_adrs_1_bF$buf5 d_lut_BUFX2
ABUFX2_insert116 [rb_adrs_1_] rb_adrs_1_bF$buf6 d_lut_BUFX2
ABUFX2_insert115 [rb_adrs_1_] rb_adrs_1_bF$buf7 d_lut_BUFX2
ABUFX2_insert114 [_562_] _562__bF$buf0 d_lut_BUFX2
ABUFX2_insert113 [_562_] _562__bF$buf1 d_lut_BUFX2
ABUFX2_insert112 [_562_] _562__bF$buf2 d_lut_BUFX2
ABUFX2_insert111 [_562_] _562__bF$buf3 d_lut_BUFX2
ABUFX2_insert110 [_562_] _562__bF$buf4 d_lut_BUFX2
ABUFX2_insert109 [_104_] _104__bF$buf0 d_lut_BUFX2
ABUFX2_insert108 [_104_] _104__bF$buf1 d_lut_BUFX2
ABUFX2_insert107 [_104_] _104__bF$buf2 d_lut_BUFX2
ABUFX2_insert106 [_104_] _104__bF$buf3 d_lut_BUFX2
ABUFX2_insert105 [_104_] _104__bF$buf4 d_lut_BUFX2
ABUFX2_insert104 [wr_en] wr_en_bF$buf0 d_lut_BUFX2
ABUFX2_insert103 [wr_en] wr_en_bF$buf1 d_lut_BUFX2
ABUFX2_insert102 [wr_en] wr_en_bF$buf2 d_lut_BUFX2
ABUFX2_insert101 [wr_en] wr_en_bF$buf3 d_lut_BUFX2
ABUFX2_insert100 [wr_en] wr_en_bF$buf4 d_lut_BUFX2
ABUFX2_insert99 [_474_] _474__bF$buf0 d_lut_BUFX2
ABUFX2_insert98 [_474_] _474__bF$buf1 d_lut_BUFX2
ABUFX2_insert97 [_474_] _474__bF$buf2 d_lut_BUFX2
ABUFX2_insert96 [_474_] _474__bF$buf3 d_lut_BUFX2
ABUFX2_insert95 [_116_] _116__bF$buf0 d_lut_BUFX2
ABUFX2_insert94 [_116_] _116__bF$buf1 d_lut_BUFX2
ABUFX2_insert93 [_116_] _116__bF$buf2 d_lut_BUFX2
ABUFX2_insert92 [_116_] _116__bF$buf3 d_lut_BUFX2
ABUFX2_insert91 [_116_] _116__bF$buf4 d_lut_BUFX2
ABUFX2_insert90 [_404_] _404__bF$buf0 d_lut_BUFX2
ABUFX2_insert89 [_404_] _404__bF$buf1 d_lut_BUFX2
ABUFX2_insert88 [_404_] _404__bF$buf2 d_lut_BUFX2
ABUFX2_insert87 [_404_] _404__bF$buf3 d_lut_BUFX2
ABUFX2_insert86 [_404_] _404__bF$buf4 d_lut_BUFX2
ABUFX2_insert85 [_542_] _542__bF$buf0 d_lut_BUFX2
ABUFX2_insert84 [_542_] _542__bF$buf1 d_lut_BUFX2
ABUFX2_insert83 [_542_] _542__bF$buf2 d_lut_BUFX2
ABUFX2_insert82 [_542_] _542__bF$buf3 d_lut_BUFX2
ABUFX2_insert81 [ra_adrs_0_] ra_adrs_0_bF$buf0 d_lut_BUFX2
ABUFX2_insert80 [ra_adrs_0_] ra_adrs_0_bF$buf1 d_lut_BUFX2
ABUFX2_insert79 [ra_adrs_0_] ra_adrs_0_bF$buf2 d_lut_BUFX2
ABUFX2_insert78 [ra_adrs_0_] ra_adrs_0_bF$buf3 d_lut_BUFX2
ABUFX2_insert77 [ra_adrs_0_] ra_adrs_0_bF$buf4 d_lut_BUFX2
ABUFX2_insert76 [ra_adrs_0_] ra_adrs_0_bF$buf5 d_lut_BUFX2
ABUFX2_insert75 [ra_adrs_0_] ra_adrs_0_bF$buf6 d_lut_BUFX2
ABUFX2_insert74 [ra_adrs_0_] ra_adrs_0_bF$buf7 d_lut_BUFX2
ABUFX2_insert73 [_422_] _422__bF$buf0 d_lut_BUFX2
ABUFX2_insert72 [_422_] _422__bF$buf1 d_lut_BUFX2
ABUFX2_insert71 [_422_] _422__bF$buf2 d_lut_BUFX2
ABUFX2_insert70 [_422_] _422__bF$buf3 d_lut_BUFX2
ABUFX2_insert69 [rb_adrs_2_] rb_adrs_2_bF$buf0 d_lut_BUFX2
ABUFX2_insert68 [rb_adrs_2_] rb_adrs_2_bF$buf1 d_lut_BUFX2
ABUFX2_insert67 [rb_adrs_2_] rb_adrs_2_bF$buf2 d_lut_BUFX2
ABUFX2_insert66 [rb_adrs_2_] rb_adrs_2_bF$buf3 d_lut_BUFX2
ABUFX2_insert65 [_525_] _525__bF$buf0 d_lut_BUFX2
ABUFX2_insert64 [_525_] _525__bF$buf1 d_lut_BUFX2
ABUFX2_insert63 [_525_] _525__bF$buf2 d_lut_BUFX2
ABUFX2_insert62 [_525_] _525__bF$buf3 d_lut_BUFX2
ABUFX2_insert61 [_525_] _525__bF$buf4 d_lut_BUFX2
ABUFX2_insert60 [_475_] _475__bF$buf0 d_lut_BUFX2
ABUFX2_insert59 [_475_] _475__bF$buf1 d_lut_BUFX2
ABUFX2_insert58 [_475_] _475__bF$buf2 d_lut_BUFX2
ABUFX2_insert57 [_475_] _475__bF$buf3 d_lut_BUFX2
ABUFX2_insert56 [_475_] _475__bF$buf4 d_lut_BUFX2
ABUFX2_insert55 [_402_] _402__bF$buf0 d_lut_BUFX2
ABUFX2_insert54 [_402_] _402__bF$buf1 d_lut_BUFX2
ABUFX2_insert53 [_402_] _402__bF$buf2 d_lut_BUFX2
ABUFX2_insert52 [_402_] _402__bF$buf3 d_lut_BUFX2
ABUFX2_insert51 [_94_] _94__bF$buf0 d_lut_BUFX2
ABUFX2_insert50 [_94_] _94__bF$buf1 d_lut_BUFX2
ABUFX2_insert49 [_94_] _94__bF$buf2 d_lut_BUFX2
ABUFX2_insert48 [_94_] _94__bF$buf3 d_lut_BUFX2
ABUFX2_insert47 [_94_] _94__bF$buf4 d_lut_BUFX2
ABUFX2_insert46 [ra_adrs_1_] ra_adrs_1_bF$buf0 d_lut_BUFX2
ABUFX2_insert45 [ra_adrs_1_] ra_adrs_1_bF$buf1 d_lut_BUFX2
ABUFX2_insert44 [ra_adrs_1_] ra_adrs_1_bF$buf2 d_lut_BUFX2
ABUFX2_insert43 [ra_adrs_1_] ra_adrs_1_bF$buf3 d_lut_BUFX2
ABUFX2_insert42 [ra_adrs_1_] ra_adrs_1_bF$buf4 d_lut_BUFX2
ABUFX2_insert41 [ra_adrs_1_] ra_adrs_1_bF$buf5 d_lut_BUFX2
ABUFX2_insert40 [ra_adrs_1_] ra_adrs_1_bF$buf6 d_lut_BUFX2
ABUFX2_insert39 [ra_adrs_1_] ra_adrs_1_bF$buf7 d_lut_BUFX2
ABUFX2_insert38 [_423_] _423__bF$buf0 d_lut_BUFX2
ABUFX2_insert37 [_423_] _423__bF$buf1 d_lut_BUFX2
ABUFX2_insert36 [_423_] _423__bF$buf2 d_lut_BUFX2
ABUFX2_insert35 [_423_] _423__bF$buf3 d_lut_BUFX2
ABUFX2_insert34 [_423_] _423__bF$buf4 d_lut_BUFX2
ABUFX2_insert33 [rb_adrs_0_] rb_adrs_0_bF$buf0 d_lut_BUFX2
ABUFX2_insert32 [rb_adrs_0_] rb_adrs_0_bF$buf1 d_lut_BUFX2
ABUFX2_insert31 [rb_adrs_0_] rb_adrs_0_bF$buf2 d_lut_BUFX2
ABUFX2_insert30 [rb_adrs_0_] rb_adrs_0_bF$buf3 d_lut_BUFX2
ABUFX2_insert29 [rb_adrs_0_] rb_adrs_0_bF$buf4 d_lut_BUFX2
ABUFX2_insert28 [rb_adrs_0_] rb_adrs_0_bF$buf5 d_lut_BUFX2
ABUFX2_insert27 [rb_adrs_0_] rb_adrs_0_bF$buf6 d_lut_BUFX2
ABUFX2_insert26 [rb_adrs_0_] rb_adrs_0_bF$buf7 d_lut_BUFX2
ABUFX2_insert25 [_370_] _370__bF$buf0 d_lut_BUFX2
ABUFX2_insert24 [_370_] _370__bF$buf1 d_lut_BUFX2
ABUFX2_insert23 [_370_] _370__bF$buf2 d_lut_BUFX2
ABUFX2_insert22 [_370_] _370__bF$buf3 d_lut_BUFX2
ABUFX2_insert21 [_370_] _370__bF$buf4 d_lut_BUFX2
ABUFX2_insert20 [_441_] _441__bF$buf0 d_lut_BUFX2
ABUFX2_insert19 [_441_] _441__bF$buf1 d_lut_BUFX2
ABUFX2_insert18 [_441_] _441__bF$buf2 d_lut_BUFX2
ABUFX2_insert17 [_441_] _441__bF$buf3 d_lut_BUFX2
ABUFX2_insert16 [_441_] _441__bF$buf4 d_lut_BUFX2
ACLKBUF1_insert15 [clock] clock_bF$buf0 d_lut_CLKBUF1
ACLKBUF1_insert14 [clock] clock_bF$buf1 d_lut_CLKBUF1
ACLKBUF1_insert13 [clock] clock_bF$buf2 d_lut_CLKBUF1
ACLKBUF1_insert12 [clock] clock_bF$buf3 d_lut_CLKBUF1
ACLKBUF1_insert11 [clock] clock_bF$buf4 d_lut_CLKBUF1
ACLKBUF1_insert10 [clock] clock_bF$buf5 d_lut_CLKBUF1
ACLKBUF1_insert9 [clock] clock_bF$buf6 d_lut_CLKBUF1
ACLKBUF1_insert8 [clock] clock_bF$buf7 d_lut_CLKBUF1
ACLKBUF1_insert7 [clock] clock_bF$buf8 d_lut_CLKBUF1
ACLKBUF1_insert6 [clock] clock_bF$buf9 d_lut_CLKBUF1
ACLKBUF1_insert5 [clock] clock_bF$buf10 d_lut_CLKBUF1
ACLKBUF1_insert4 [clock] clock_bF$buf11 d_lut_CLKBUF1
ABUFX2_insert3 [ra_adrs_2_] ra_adrs_2_bF$buf0 d_lut_BUFX2
ABUFX2_insert2 [ra_adrs_2_] ra_adrs_2_bF$buf1 d_lut_BUFX2
ABUFX2_insert1 [ra_adrs_2_] ra_adrs_2_bF$buf2 d_lut_BUFX2
ABUFX2_insert0 [ra_adrs_2_] ra_adrs_2_bF$buf3 d_lut_BUFX2
A_1000_ [\internal_reg_2_\_14_ _423__bF$buf4] _438_ d_lut_NAND2X1
A_1001_ [_398_ _423__bF$buf3 _438_] _117_ d_lut_OAI21X1
A_1002_ [\internal_reg_2_\_15_ _423__bF$buf2] _439_ d_lut_NAND2X1
A_1003_ [_400_ _423__bF$buf1 _439_] _119_ d_lut_OAI21X1
A_1004_ [\internal_reg_3_\_0_] _440_ d_lut_INVX1
A_1005_ [_404__bF$buf4] _441_ d_lut_INVX8
A_1006_ [_441__bF$buf4 _422__bF$buf3] _442_ d_lut_AND2X2
A_1007_ [data_in_0_ _422__bF$buf2 _441__bF$buf3] _443_ d_lut_NAND3X1
A_1008_ [_440_ _442_ _443_] _123_ d_lut_OAI21X1
A_1009_ [\internal_reg_3_\_1_] _444_ d_lut_INVX1
A_1010_ [data_in_1_ _422__bF$buf1 _441__bF$buf2] _445_ d_lut_NAND3X1
A_1011_ [_444_ _442_ _445_] _125_ d_lut_OAI21X1
A_1012_ [\internal_reg_3_\_2_] _446_ d_lut_INVX1
A_1013_ [data_in_2_ _422__bF$buf0 _441__bF$buf1] _447_ d_lut_NAND3X1
A_1014_ [_446_ _442_ _447_] _127_ d_lut_OAI21X1
A_1015_ [\internal_reg_3_\_3_] _448_ d_lut_INVX1
A_1016_ [data_in_3_ _422__bF$buf3 _441__bF$buf0] _449_ d_lut_NAND3X1
A_1017_ [_448_ _442_ _449_] _129_ d_lut_OAI21X1
A_1018_ [\internal_reg_3_\_4_] _450_ d_lut_INVX1
A_1019_ [data_in_4_ _422__bF$buf2 _441__bF$buf4] _451_ d_lut_NAND3X1
A_1020_ [_450_ _442_ _451_] _131_ d_lut_OAI21X1
A_1021_ [\internal_reg_3_\_5_] _452_ d_lut_INVX1
A_1022_ [data_in_5_ _422__bF$buf1 _441__bF$buf3] _453_ d_lut_NAND3X1
A_1023_ [_452_ _442_ _453_] _133_ d_lut_OAI21X1
A_1024_ [\internal_reg_3_\_6_] _454_ d_lut_INVX1
A_1025_ [data_in_6_ _422__bF$buf0 _441__bF$buf2] _455_ d_lut_NAND3X1
A_1026_ [_454_ _442_ _455_] _135_ d_lut_OAI21X1
A_1027_ [\internal_reg_3_\_7_] _456_ d_lut_INVX1
A_1028_ [data_in_7_ _422__bF$buf3 _441__bF$buf1] _457_ d_lut_NAND3X1
A_1029_ [_456_ _442_ _457_] _137_ d_lut_OAI21X1
A_1030_ [\internal_reg_3_\_8_] _458_ d_lut_INVX1
A_1031_ [data_in_8_ _422__bF$buf2 _441__bF$buf0] _459_ d_lut_NAND3X1
A_1032_ [_458_ _442_ _459_] _139_ d_lut_OAI21X1
A_1033_ [\internal_reg_3_\_9_] _460_ d_lut_INVX1
A_1034_ [data_in_9_ _422__bF$buf1 _441__bF$buf4] _461_ d_lut_NAND3X1
A_1035_ [_460_ _442_ _461_] _140_ d_lut_OAI21X1
A_1036_ [\internal_reg_3_\_10_] _462_ d_lut_INVX1
A_1037_ [data_in_10_ _422__bF$buf0 _441__bF$buf3] _463_ d_lut_NAND3X1
A_1038_ [_462_ _442_ _463_] _142_ d_lut_OAI21X1
A_1039_ [\internal_reg_3_\_11_] _464_ d_lut_INVX1
A_1040_ [data_in_11_ _422__bF$buf3 _441__bF$buf2] _465_ d_lut_NAND3X1
A_1041_ [_464_ _442_ _465_] _144_ d_lut_OAI21X1
A_1042_ [\internal_reg_3_\_12_] _466_ d_lut_INVX1
A_1043_ [data_in_12_ _422__bF$buf2 _441__bF$buf1] _467_ d_lut_NAND3X1
A_1044_ [_466_ _442_ _467_] _146_ d_lut_OAI21X1
A_1045_ [\internal_reg_3_\_13_] _468_ d_lut_INVX1
A_1046_ [data_in_13_ _422__bF$buf1 _441__bF$buf0] _469_ d_lut_NAND3X1
A_1047_ [_468_ _442_ _469_] _148_ d_lut_OAI21X1
A_1048_ [\internal_reg_3_\_14_] _470_ d_lut_INVX1
A_1049_ [data_in_14_ _422__bF$buf0 _441__bF$buf4] _471_ d_lut_NAND3X1
A_1050_ [_470_ _442_ _471_] _150_ d_lut_OAI21X1
A_1051_ [\internal_reg_3_\_15_] _472_ d_lut_INVX1
A_1052_ [data_in_15_ _422__bF$buf3 _441__bF$buf3] _473_ d_lut_NAND3X1
A_1053_ [_472_ _442_ _473_] _152_ d_lut_OAI21X1
A_1054_ [rd_adrs_1_ _366_] _474_ d_lut_NOR2X1
A_1055_ [_474__bF$buf3 _369_] _475_ d_lut_NAND2X1
A_1056_ [\internal_reg_4_\_0_ _475__bF$buf4] _476_ d_lut_NAND2X1
A_1057_ [_365_ _475__bF$buf3 _476_] _157_ d_lut_OAI21X1
A_1058_ [\internal_reg_4_\_1_ _475__bF$buf2] _477_ d_lut_NAND2X1
A_1059_ [_372_ _475__bF$buf1 _477_] _159_ d_lut_OAI21X1
A_1060_ [\internal_reg_4_\_2_ _475__bF$buf0] _478_ d_lut_NAND2X1
A_1061_ [_374_ _475__bF$buf4 _478_] _160_ d_lut_OAI21X1
A_1062_ [\internal_reg_4_\_3_ _475__bF$buf3] _479_ d_lut_NAND2X1
A_1063_ [_376_ _475__bF$buf2 _479_] _162_ d_lut_OAI21X1
A_1064_ [\internal_reg_4_\_4_ _475__bF$buf1] _480_ d_lut_NAND2X1
A_1065_ [_378_ _475__bF$buf0 _480_] _164_ d_lut_OAI21X1
A_1066_ [\internal_reg_4_\_5_ _475__bF$buf4] _481_ d_lut_NAND2X1
A_1067_ [_380_ _475__bF$buf3 _481_] _166_ d_lut_OAI21X1
A_1068_ [\internal_reg_4_\_6_ _475__bF$buf2] _482_ d_lut_NAND2X1
A_1069_ [_382_ _475__bF$buf1 _482_] _168_ d_lut_OAI21X1
A_1070_ [\internal_reg_4_\_7_ _475__bF$buf0] _483_ d_lut_NAND2X1
A_1071_ [_384_ _475__bF$buf4 _483_] _170_ d_lut_OAI21X1
A_1072_ [\internal_reg_4_\_8_ _475__bF$buf3] _484_ d_lut_NAND2X1
A_1073_ [_386_ _475__bF$buf2 _484_] _172_ d_lut_OAI21X1
A_1074_ [\internal_reg_4_\_9_ _475__bF$buf1] _485_ d_lut_NAND2X1
A_1075_ [_388_ _475__bF$buf0 _485_] _174_ d_lut_OAI21X1
A_1076_ [\internal_reg_4_\_10_ _475__bF$buf4] _486_ d_lut_NAND2X1
A_1077_ [_390_ _475__bF$buf3 _486_] _176_ d_lut_OAI21X1
A_1078_ [\internal_reg_4_\_11_ _475__bF$buf2] _487_ d_lut_NAND2X1
A_1079_ [_392_ _475__bF$buf1 _487_] _178_ d_lut_OAI21X1
A_1080_ [\internal_reg_4_\_12_ _475__bF$buf0] _488_ d_lut_NAND2X1
A_1081_ [_394_ _475__bF$buf4 _488_] _180_ d_lut_OAI21X1
A_1082_ [\internal_reg_4_\_13_ _475__bF$buf3] _489_ d_lut_NAND2X1
A_1083_ [_396_ _475__bF$buf2 _489_] _182_ d_lut_OAI21X1
A_1084_ [\internal_reg_4_\_14_ _475__bF$buf1] _490_ d_lut_NAND2X1
A_1085_ [_398_ _475__bF$buf0 _490_] _183_ d_lut_OAI21X1
A_1086_ [\internal_reg_4_\_15_ _475__bF$buf4] _491_ d_lut_NAND2X1
A_1087_ [_400_ _475__bF$buf3 _491_] _185_ d_lut_OAI21X1
A_1088_ [\internal_reg_5_\_0_] _492_ d_lut_INVX1
A_1089_ [_441__bF$buf2 _474__bF$buf2] _493_ d_lut_AND2X2
A_1090_ [data_in_0_ _474__bF$buf1 _441__bF$buf1] _494_ d_lut_NAND3X1
A_1091_ [_492_ _493_ _494_] _189_ d_lut_OAI21X1
A_1092_ [\internal_reg_5_\_1_] _495_ d_lut_INVX1
A_1093_ [data_in_1_ _474__bF$buf0 _441__bF$buf0] _496_ d_lut_NAND3X1
A_1094_ [_495_ _493_ _496_] _191_ d_lut_OAI21X1
A_1095_ [\internal_reg_5_\_2_] _497_ d_lut_INVX1
A_1096_ [data_in_2_ _474__bF$buf3 _441__bF$buf4] _498_ d_lut_NAND3X1
A_1097_ [_497_ _493_ _498_] _193_ d_lut_OAI21X1
A_1098_ [\internal_reg_5_\_3_] _499_ d_lut_INVX1
A_1099_ [data_in_3_ _474__bF$buf2 _441__bF$buf3] _500_ d_lut_NAND3X1
A_1100_ [_499_ _493_ _500_] _195_ d_lut_OAI21X1
A_1101_ [\internal_reg_5_\_4_] _501_ d_lut_INVX1
A_1102_ [data_in_4_ _474__bF$buf1 _441__bF$buf2] _502_ d_lut_NAND3X1
A_1103_ [_501_ _493_ _502_] _197_ d_lut_OAI21X1
A_1104_ [\internal_reg_5_\_5_] _503_ d_lut_INVX1
A_1105_ [data_in_5_ _474__bF$buf0 _441__bF$buf1] _504_ d_lut_NAND3X1
A_1106_ [_503_ _493_ _504_] _199_ d_lut_OAI21X1
A_1107_ [\internal_reg_5_\_6_] _505_ d_lut_INVX1
A_1108_ [data_in_6_ _474__bF$buf3 _441__bF$buf0] _506_ d_lut_NAND3X1
A_1109_ [_505_ _493_ _506_] _201_ d_lut_OAI21X1
A_1110_ [\internal_reg_5_\_7_] _507_ d_lut_INVX1
A_1111_ [data_in_7_ _474__bF$buf2 _441__bF$buf4] _508_ d_lut_NAND3X1
A_1112_ [_507_ _493_ _508_] _203_ d_lut_OAI21X1
A_1113_ [\internal_reg_5_\_8_] _509_ d_lut_INVX1
A_1114_ [data_in_8_ _474__bF$buf1 _441__bF$buf3] _510_ d_lut_NAND3X1
A_1115_ [_509_ _493_ _510_] _204_ d_lut_OAI21X1
A_1116_ [\internal_reg_5_\_9_] _511_ d_lut_INVX1
A_1117_ [data_in_9_ _474__bF$buf0 _441__bF$buf2] _512_ d_lut_NAND3X1
A_1118_ [_511_ _493_ _512_] _206_ d_lut_OAI21X1
A_1119_ [\internal_reg_5_\_10_] _513_ d_lut_INVX1
A_1120_ [data_in_10_ _474__bF$buf3 _441__bF$buf1] _514_ d_lut_NAND3X1
A_1121_ [_513_ _493_ _514_] _208_ d_lut_OAI21X1
A_1122_ [\internal_reg_5_\_11_] _515_ d_lut_INVX1
A_1123_ [data_in_11_ _474__bF$buf2 _441__bF$buf0] _516_ d_lut_NAND3X1
A_1124_ [_515_ _493_ _516_] _210_ d_lut_OAI21X1
A_1125_ [\internal_reg_5_\_12_] _517_ d_lut_INVX1
A_1126_ [data_in_12_ _474__bF$buf1 _441__bF$buf4] _518_ d_lut_NAND3X1
A_1127_ [_517_ _493_ _518_] _212_ d_lut_OAI21X1
A_1128_ [\internal_reg_5_\_13_] _519_ d_lut_INVX1
A_1129_ [data_in_13_ _474__bF$buf0 _441__bF$buf3] _520_ d_lut_NAND3X1
A_1130_ [_519_ _493_ _520_] _214_ d_lut_OAI21X1
A_1131_ [\internal_reg_5_\_14_] _521_ d_lut_INVX1
A_1132_ [data_in_14_ _474__bF$buf3 _441__bF$buf2] _522_ d_lut_NAND3X1
A_1133_ [_521_ _493_ _522_] _216_ d_lut_OAI21X1
A_1134_ [\internal_reg_5_\_15_] _523_ d_lut_INVX1
A_1135_ [data_in_15_ _474__bF$buf2 _441__bF$buf1] _524_ d_lut_NAND3X1
A_1136_ [_523_ _493_ _524_] _218_ d_lut_OAI21X1
A_1137_ [rd_adrs_2_ rd_adrs_1_ _369_] _525_ d_lut_NAND3X1
A_1138_ [\internal_reg_6_\_0_ _525__bF$buf4] _526_ d_lut_NAND2X1
A_1139_ [_365_ _525__bF$buf3 _526_] _223_ d_lut_OAI21X1
A_1140_ [\internal_reg_6_\_1_ _525__bF$buf2] _527_ d_lut_NAND2X1
A_1141_ [_372_ _525__bF$buf1 _527_] _224_ d_lut_OAI21X1
A_1142_ [\internal_reg_6_\_2_ _525__bF$buf0] _528_ d_lut_NAND2X1
A_1143_ [_374_ _525__bF$buf4 _528_] _226_ d_lut_OAI21X1
A_1144_ [\internal_reg_6_\_3_ _525__bF$buf3] _529_ d_lut_NAND2X1
A_1145_ [_376_ _525__bF$buf2 _529_] _228_ d_lut_OAI21X1
A_1146_ [\internal_reg_6_\_4_ _525__bF$buf1] _530_ d_lut_NAND2X1
A_1147_ [_378_ _525__bF$buf0 _530_] _230_ d_lut_OAI21X1
A_1148_ [\internal_reg_6_\_5_ _525__bF$buf4] _531_ d_lut_NAND2X1
A_1149_ [_380_ _525__bF$buf3 _531_] _232_ d_lut_OAI21X1
A_1150_ [\internal_reg_6_\_6_ _525__bF$buf2] _532_ d_lut_NAND2X1
A_1151_ [_382_ _525__bF$buf1 _532_] _234_ d_lut_OAI21X1
A_1152_ [\internal_reg_6_\_7_ _525__bF$buf0] _533_ d_lut_NAND2X1
A_1153_ [_384_ _525__bF$buf4 _533_] _236_ d_lut_OAI21X1
A_1154_ [\internal_reg_6_\_8_ _525__bF$buf3] _534_ d_lut_NAND2X1
A_1155_ [_386_ _525__bF$buf2 _534_] _238_ d_lut_OAI21X1
A_1156_ [\internal_reg_6_\_9_ _525__bF$buf1] _535_ d_lut_NAND2X1
A_1157_ [_388_ _525__bF$buf0 _535_] _240_ d_lut_OAI21X1
A_1158_ [\internal_reg_6_\_10_ _525__bF$buf4] _536_ d_lut_NAND2X1
A_1159_ [_390_ _525__bF$buf3 _536_] _242_ d_lut_OAI21X1
A_1160_ [\internal_reg_6_\_11_ _525__bF$buf2] _537_ d_lut_NAND2X1
A_1161_ [_392_ _525__bF$buf1 _537_] _244_ d_lut_OAI21X1
A_1162_ [\internal_reg_6_\_12_ _525__bF$buf0] _538_ d_lut_NAND2X1
A_1163_ [_394_ _525__bF$buf4 _538_] _246_ d_lut_OAI21X1
A_1164_ [\internal_reg_6_\_13_ _525__bF$buf3] _539_ d_lut_NAND2X1
A_1165_ [_396_ _525__bF$buf2 _539_] _247_ d_lut_OAI21X1
A_1166_ [\internal_reg_6_\_14_ _525__bF$buf1] _540_ d_lut_NAND2X1
A_1167_ [_398_ _525__bF$buf0 _540_] _249_ d_lut_OAI21X1
A_1168_ [\internal_reg_6_\_15_ _525__bF$buf4] _541_ d_lut_NAND2X1
A_1169_ [_400_ _525__bF$buf3 _541_] _251_ d_lut_OAI21X1
A_1170_ [rd_adrs_2_ rd_adrs_1_] _542_ d_lut_NAND2X1
A_1171_ [_404__bF$buf3 _542__bF$buf3] _543_ d_lut_OR2X2
A_1172_ [_542__bF$buf2 _404__bF$buf2 \internal_reg_7_\_0_] _544_ d_lut_OAI21X1
A_1173_ [_365_ _543_ _544_] _255_ d_lut_OAI21X1
A_1174_ [_542__bF$buf1 _404__bF$buf1 \internal_reg_7_\_1_] _545_ d_lut_OAI21X1
A_1175_ [_372_ _543_ _545_] _257_ d_lut_OAI21X1
A_1176_ [_542__bF$buf0 _404__bF$buf0 \internal_reg_7_\_2_] _546_ d_lut_OAI21X1
A_1177_ [_374_ _543_ _546_] _259_ d_lut_OAI21X1
A_1178_ [_542__bF$buf3 _404__bF$buf4 \internal_reg_7_\_3_] _547_ d_lut_OAI21X1
A_1179_ [_376_ _543_ _547_] _261_ d_lut_OAI21X1
A_1180_ [_542__bF$buf2 _404__bF$buf3 \internal_reg_7_\_4_] _548_ d_lut_OAI21X1
A_1181_ [_378_ _543_ _548_] _263_ d_lut_OAI21X1
A_1182_ [_542__bF$buf1 _404__bF$buf2 \internal_reg_7_\_5_] _549_ d_lut_OAI21X1
A_1183_ [_380_ _543_ _549_] _265_ d_lut_OAI21X1
A_1184_ [_542__bF$buf0 _404__bF$buf1 \internal_reg_7_\_6_] _550_ d_lut_OAI21X1
A_1185_ [_382_ _543_ _550_] _267_ d_lut_OAI21X1
A_1186_ [_542__bF$buf3 _404__bF$buf0 \internal_reg_7_\_7_] _551_ d_lut_OAI21X1
A_1187_ [_384_ _543_ _551_] _268_ d_lut_OAI21X1
A_1188_ [_542__bF$buf2 _404__bF$buf4 \internal_reg_7_\_8_] _552_ d_lut_OAI21X1
A_1189_ [_386_ _543_ _552_] _270_ d_lut_OAI21X1
A_1190_ [_542__bF$buf1 _404__bF$buf3 \internal_reg_7_\_9_] _553_ d_lut_OAI21X1
A_1191_ [_388_ _543_ _553_] _272_ d_lut_OAI21X1
A_1192_ [_542__bF$buf0 _404__bF$buf2 \internal_reg_7_\_10_] _554_ d_lut_OAI21X1
A_1193_ [_390_ _543_ _554_] _274_ d_lut_OAI21X1
A_1194_ [_542__bF$buf3 _404__bF$buf1 \internal_reg_7_\_11_] _555_ d_lut_OAI21X1
A_1195_ [_392_ _543_ _555_] _276_ d_lut_OAI21X1
A_1196_ [_542__bF$buf2 _404__bF$buf0 \internal_reg_7_\_12_] _556_ d_lut_OAI21X1
A_1197_ [_394_ _543_ _556_] _278_ d_lut_OAI21X1
A_1198_ [_542__bF$buf1 _404__bF$buf4 \internal_reg_7_\_13_] _557_ d_lut_OAI21X1
A_1199_ [_396_ _543_ _557_] _280_ d_lut_OAI21X1
A_1200_ [_542__bF$buf0 _404__bF$buf3 \internal_reg_7_\_14_] _558_ d_lut_OAI21X1
A_1201_ [_398_ _543_ _558_] _282_ d_lut_OAI21X1
A_1202_ [_542__bF$buf3 _404__bF$buf2 \internal_reg_7_\_15_] _559_ d_lut_OAI21X1
A_1203_ [_400_ _543_ _559_] _284_ d_lut_OAI21X1
A_1204_ [rb_adrs_2_bF$buf3] _560_ d_lut_INVX4
A_1205_ [\internal_reg_5_\_0_ \internal_reg_4_\_0_ rb_adrs_0_bF$buf7] _561_ d_lut_MUX2X1
A_1206_ [rb_adrs_0_bF$buf6] _562_ d_lut_INVX8
A_1207_ [\internal_reg_7_\_0_ _562__bF$buf4] _563_ d_lut_NOR2X1
A_1208_ [\internal_reg_6_\_0_ rb_adrs_0_bF$buf5 rb_adrs_1_bF$buf7] _564_ d_lut_OAI21X1
A_1209_ [_564_ _563_ rb_adrs_1_bF$buf6 _561_] _565_ d_lut_OAI22X1
A_1210_ [_560_ _565_] _566_ d_lut_NOR2X1
A_1211_ [wr_en_bF$buf4 _104__bF$buf4 _684__0_] _567_ d_lut_OAI21X1
A_1212_ [\internal_reg_1_\_0_ \internal_reg_0_\_0_ rb_adrs_0_bF$buf4] _568_ d_lut_MUX2X1
A_1213_ [\internal_reg_3_\_0_ _562__bF$buf3] _569_ d_lut_NOR2X1
A_1214_ [\internal_reg_2_\_0_ rb_adrs_0_bF$buf3 rb_adrs_1_bF$buf5] _570_ d_lut_OAI21X1
A_1215_ [_570_ _569_ rb_adrs_1_bF$buf4 _568_] _571_ d_lut_OAI22X1
A_1216_ [rb_adrs_2_bF$buf2 _571_ _116__bF$buf4] _572_ d_lut_OAI21X1
A_1217_ [_566_ _572_ _567_] _1__0_ d_lut_OAI21X1
A_1218_ [\internal_reg_5_\_1_ \internal_reg_4_\_1_ rb_adrs_0_bF$buf2] _573_ d_lut_MUX2X1
A_1219_ [\internal_reg_7_\_1_ _562__bF$buf2] _574_ d_lut_NOR2X1
A_1220_ [\internal_reg_6_\_1_ rb_adrs_0_bF$buf1 rb_adrs_1_bF$buf3] _575_ d_lut_OAI21X1
A_1221_ [_575_ _574_ rb_adrs_1_bF$buf2 _573_] _576_ d_lut_OAI22X1
A_1222_ [_560_ _576_] _577_ d_lut_NOR2X1
A_1223_ [wr_en_bF$buf3 _104__bF$buf3 _684__1_] _578_ d_lut_OAI21X1
A_1224_ [\internal_reg_1_\_1_ \internal_reg_0_\_1_ rb_adrs_0_bF$buf0] _579_ d_lut_MUX2X1
A_1225_ [\internal_reg_3_\_1_ _562__bF$buf1] _580_ d_lut_NOR2X1
A_1226_ [\internal_reg_2_\_1_ rb_adrs_0_bF$buf7 rb_adrs_1_bF$buf1] _581_ d_lut_OAI21X1
A_1227_ [_581_ _580_ rb_adrs_1_bF$buf0 _579_] _582_ d_lut_OAI22X1
A_1228_ [rb_adrs_2_bF$buf1 _582_ _116__bF$buf3] _583_ d_lut_OAI21X1
A_1229_ [_577_ _583_ _578_] _1__1_ d_lut_OAI21X1
A_1230_ [\internal_reg_5_\_2_ \internal_reg_4_\_2_ rb_adrs_0_bF$buf6] _584_ d_lut_MUX2X1
A_1231_ [\internal_reg_7_\_2_ _562__bF$buf0] _585_ d_lut_NOR2X1
A_1232_ [\internal_reg_6_\_2_ rb_adrs_0_bF$buf5 rb_adrs_1_bF$buf7] _586_ d_lut_OAI21X1
A_1233_ [_586_ _585_ rb_adrs_1_bF$buf6 _584_] _587_ d_lut_OAI22X1
A_1234_ [_560_ _587_] _588_ d_lut_NOR2X1
A_1235_ [wr_en_bF$buf2 _104__bF$buf2 _684__2_] _589_ d_lut_OAI21X1
A_1236_ [\internal_reg_1_\_2_ \internal_reg_0_\_2_ rb_adrs_0_bF$buf4] _590_ d_lut_MUX2X1
A_1237_ [\internal_reg_3_\_2_ _562__bF$buf4] _591_ d_lut_NOR2X1
A_1238_ [\internal_reg_2_\_2_ rb_adrs_0_bF$buf3 rb_adrs_1_bF$buf5] _592_ d_lut_OAI21X1
A_1239_ [_592_ _591_ rb_adrs_1_bF$buf4 _590_] _593_ d_lut_OAI22X1
A_1240_ [rb_adrs_2_bF$buf0 _593_ _116__bF$buf2] _594_ d_lut_OAI21X1
A_1241_ [_588_ _594_ _589_] _1__2_ d_lut_OAI21X1
A_1242_ [\internal_reg_5_\_3_ \internal_reg_4_\_3_ rb_adrs_0_bF$buf2] _595_ d_lut_MUX2X1
A_1243_ [\internal_reg_7_\_3_ _562__bF$buf3] _596_ d_lut_NOR2X1
A_1244_ [\internal_reg_6_\_3_ rb_adrs_0_bF$buf1 rb_adrs_1_bF$buf3] _597_ d_lut_OAI21X1
A_1245_ [_597_ _596_ rb_adrs_1_bF$buf2 _595_] _598_ d_lut_OAI22X1
A_1246_ [_560_ _598_] _599_ d_lut_NOR2X1
A_1247_ [wr_en_bF$buf1 _104__bF$buf1 _684__3_] _600_ d_lut_OAI21X1
A_1248_ [\internal_reg_1_\_3_ \internal_reg_0_\_3_ rb_adrs_0_bF$buf0] _601_ d_lut_MUX2X1
A_1249_ [\internal_reg_3_\_3_ _562__bF$buf2] _602_ d_lut_NOR2X1
A_1250_ [\internal_reg_2_\_3_ rb_adrs_0_bF$buf7 rb_adrs_1_bF$buf1] _603_ d_lut_OAI21X1
A_1251_ [_603_ _602_ rb_adrs_1_bF$buf0 _601_] _604_ d_lut_OAI22X1
A_1252_ [rb_adrs_2_bF$buf3 _604_ _116__bF$buf1] _605_ d_lut_OAI21X1
A_1253_ [_599_ _605_ _600_] _1__3_ d_lut_OAI21X1
A_1254_ [\internal_reg_5_\_4_ \internal_reg_4_\_4_ rb_adrs_0_bF$buf6] _606_ d_lut_MUX2X1
A_1255_ [\internal_reg_7_\_4_ _562__bF$buf1] _607_ d_lut_NOR2X1
A_1256_ [\internal_reg_6_\_4_ rb_adrs_0_bF$buf5 rb_adrs_1_bF$buf7] _608_ d_lut_OAI21X1
A_1257_ [_608_ _607_ rb_adrs_1_bF$buf6 _606_] _609_ d_lut_OAI22X1
A_1258_ [_560_ _609_] _610_ d_lut_NOR2X1
A_1259_ [wr_en_bF$buf0 _104__bF$buf0 _684__4_] _611_ d_lut_OAI21X1
A_1260_ [\internal_reg_1_\_4_ \internal_reg_0_\_4_ rb_adrs_0_bF$buf4] _612_ d_lut_MUX2X1
A_1261_ [\internal_reg_3_\_4_ _562__bF$buf0] _613_ d_lut_NOR2X1
A_1262_ [\internal_reg_2_\_4_ rb_adrs_0_bF$buf3 rb_adrs_1_bF$buf5] _614_ d_lut_OAI21X1
A_1263_ [_614_ _613_ rb_adrs_1_bF$buf4 _612_] _615_ d_lut_OAI22X1
A_1264_ [rb_adrs_2_bF$buf2 _615_ _116__bF$buf0] _616_ d_lut_OAI21X1
A_1265_ [_610_ _616_ _611_] _1__4_ d_lut_OAI21X1
A_1266_ [\internal_reg_5_\_5_ \internal_reg_4_\_5_ rb_adrs_0_bF$buf2] _617_ d_lut_MUX2X1
A_1267_ [\internal_reg_7_\_5_ _562__bF$buf4] _618_ d_lut_NOR2X1
A_1268_ [\internal_reg_6_\_5_ rb_adrs_0_bF$buf1 rb_adrs_1_bF$buf3] _619_ d_lut_OAI21X1
A_1269_ [_619_ _618_ rb_adrs_1_bF$buf2 _617_] _620_ d_lut_OAI22X1
A_1270_ [_560_ _620_] _621_ d_lut_NOR2X1
A_1271_ [wr_en_bF$buf4 _104__bF$buf4 _684__5_] _622_ d_lut_OAI21X1
A_1272_ [\internal_reg_1_\_5_ \internal_reg_0_\_5_ rb_adrs_0_bF$buf0] _623_ d_lut_MUX2X1
A_1273_ [\internal_reg_3_\_5_ _562__bF$buf3] _624_ d_lut_NOR2X1
A_1274_ [\internal_reg_2_\_5_ rb_adrs_0_bF$buf7 rb_adrs_1_bF$buf1] _625_ d_lut_OAI21X1
A_1275_ [_625_ _624_ rb_adrs_1_bF$buf0 _623_] _626_ d_lut_OAI22X1
A_1276_ [rb_adrs_2_bF$buf1 _626_ _116__bF$buf4] _627_ d_lut_OAI21X1
A_1277_ [_621_ _627_ _622_] _1__5_ d_lut_OAI21X1
A_1278_ [\internal_reg_5_\_6_ \internal_reg_4_\_6_ rb_adrs_0_bF$buf6] _628_ d_lut_MUX2X1
A_1279_ [\internal_reg_7_\_6_ _562__bF$buf2] _629_ d_lut_NOR2X1
A_1280_ [\internal_reg_6_\_6_ rb_adrs_0_bF$buf5 rb_adrs_1_bF$buf7] _630_ d_lut_OAI21X1
A_1281_ [_630_ _629_ rb_adrs_1_bF$buf6 _628_] _631_ d_lut_OAI22X1
A_1282_ [_560_ _631_] _632_ d_lut_NOR2X1
A_1283_ [wr_en_bF$buf3 _104__bF$buf3 _684__6_] _633_ d_lut_OAI21X1
A_1284_ [\internal_reg_1_\_6_ \internal_reg_0_\_6_ rb_adrs_0_bF$buf4] _634_ d_lut_MUX2X1
A_1285_ [\internal_reg_3_\_6_ _562__bF$buf1] _635_ d_lut_NOR2X1
A_1286_ [\internal_reg_2_\_6_ rb_adrs_0_bF$buf3 rb_adrs_1_bF$buf5] _636_ d_lut_OAI21X1
A_1287_ [_636_ _635_ rb_adrs_1_bF$buf4 _634_] _637_ d_lut_OAI22X1
A_1288_ [rb_adrs_2_bF$buf0 _637_ _116__bF$buf3] _638_ d_lut_OAI21X1
A_1289_ [_632_ _638_ _633_] _1__6_ d_lut_OAI21X1
A_1290_ [\internal_reg_5_\_7_ \internal_reg_4_\_7_ rb_adrs_0_bF$buf2] _639_ d_lut_MUX2X1
A_1291_ [\internal_reg_7_\_7_ _562__bF$buf0] _640_ d_lut_NOR2X1
A_1292_ [\internal_reg_6_\_7_ rb_adrs_0_bF$buf1 rb_adrs_1_bF$buf3] _641_ d_lut_OAI21X1
A_1293_ [_641_ _640_ rb_adrs_1_bF$buf2 _639_] _642_ d_lut_OAI22X1
A_1294_ [_560_ _642_] _643_ d_lut_NOR2X1
A_1295_ [wr_en_bF$buf2 _104__bF$buf2 _684__7_] _644_ d_lut_OAI21X1
A_1296_ [\internal_reg_1_\_7_ \internal_reg_0_\_7_ rb_adrs_0_bF$buf0] _645_ d_lut_MUX2X1
A_1297_ [\internal_reg_3_\_7_ _562__bF$buf4] _646_ d_lut_NOR2X1
A_1298_ [\internal_reg_2_\_7_ rb_adrs_0_bF$buf7 rb_adrs_1_bF$buf1] _647_ d_lut_OAI21X1
A_1299_ [_647_ _646_ rb_adrs_1_bF$buf0 _645_] _648_ d_lut_OAI22X1
A_1300_ [rb_adrs_2_bF$buf3 _648_ _116__bF$buf2] _649_ d_lut_OAI21X1
A_1301_ [_643_ _649_ _644_] _1__7_ d_lut_OAI21X1
A_1302_ [\internal_reg_5_\_8_ \internal_reg_4_\_8_ rb_adrs_0_bF$buf6] _650_ d_lut_MUX2X1
A_1303_ [\internal_reg_7_\_8_ _562__bF$buf3] _651_ d_lut_NOR2X1
A_1304_ [\internal_reg_6_\_8_ rb_adrs_0_bF$buf5 rb_adrs_1_bF$buf7] _652_ d_lut_OAI21X1
A_1305_ [_652_ _651_ rb_adrs_1_bF$buf6 _650_] _653_ d_lut_OAI22X1
A_1306_ [_560_ _653_] _654_ d_lut_NOR2X1
A_1307_ [wr_en_bF$buf1 _104__bF$buf1 _684__8_] _655_ d_lut_OAI21X1
A_1308_ [\internal_reg_1_\_8_ \internal_reg_0_\_8_ rb_adrs_0_bF$buf4] _656_ d_lut_MUX2X1
A_1309_ [\internal_reg_3_\_8_ _562__bF$buf2] _657_ d_lut_NOR2X1
A_1310_ [\internal_reg_2_\_8_ rb_adrs_0_bF$buf3 rb_adrs_1_bF$buf5] _658_ d_lut_OAI21X1
A_1311_ [_658_ _657_ rb_adrs_1_bF$buf4 _656_] _659_ d_lut_OAI22X1
A_1312_ [rb_adrs_2_bF$buf2 _659_ _116__bF$buf1] _660_ d_lut_OAI21X1
A_1313_ [_654_ _660_ _655_] _1__8_ d_lut_OAI21X1
A_1314_ [\internal_reg_5_\_9_ \internal_reg_4_\_9_ rb_adrs_0_bF$buf2] _661_ d_lut_MUX2X1
A_1315_ [\internal_reg_7_\_9_ _562__bF$buf1] _662_ d_lut_NOR2X1
A_1316_ [\internal_reg_6_\_9_ rb_adrs_0_bF$buf1 rb_adrs_1_bF$buf3] _663_ d_lut_OAI21X1
A_1317_ [_663_ _662_ rb_adrs_1_bF$buf2 _661_] _664_ d_lut_OAI22X1
A_1318_ [_560_ _664_] _665_ d_lut_NOR2X1
A_1319_ [wr_en_bF$buf0 _104__bF$buf0 _684__9_] _666_ d_lut_OAI21X1
A_1320_ [\internal_reg_1_\_9_ \internal_reg_0_\_9_ rb_adrs_0_bF$buf0] _667_ d_lut_MUX2X1
A_1321_ [\internal_reg_3_\_9_ _562__bF$buf0] _668_ d_lut_NOR2X1
A_1322_ [\internal_reg_2_\_9_ rb_adrs_0_bF$buf7 rb_adrs_1_bF$buf1] _669_ d_lut_OAI21X1
A_1323_ [_669_ _668_ rb_adrs_1_bF$buf0 _667_] _670_ d_lut_OAI22X1
A_1324_ [rb_adrs_2_bF$buf1 _670_ _116__bF$buf0] _671_ d_lut_OAI21X1
A_1325_ [_665_ _671_ _666_] _1__9_ d_lut_OAI21X1
A_1326_ [\internal_reg_5_\_10_ \internal_reg_4_\_10_ rb_adrs_0_bF$buf6] _672_ d_lut_MUX2X1
A_1327_ [\internal_reg_7_\_10_ _562__bF$buf4] _673_ d_lut_NOR2X1
A_1328_ [\internal_reg_6_\_10_ rb_adrs_0_bF$buf5 rb_adrs_1_bF$buf7] _674_ d_lut_OAI21X1
A_1329_ [_674_ _673_ rb_adrs_1_bF$buf6 _672_] _675_ d_lut_OAI22X1
A_1330_ [_560_ _675_] _676_ d_lut_NOR2X1
A_1331_ [wr_en_bF$buf4 _104__bF$buf4 _684__10_] _677_ d_lut_OAI21X1
A_1332_ [\internal_reg_1_\_10_ \internal_reg_0_\_10_ rb_adrs_0_bF$buf4] _678_ d_lut_MUX2X1
A_1333_ [\internal_reg_3_\_10_ _562__bF$buf3] _679_ d_lut_NOR2X1
A_1334_ [\internal_reg_2_\_10_ rb_adrs_0_bF$buf3 rb_adrs_1_bF$buf5] _680_ d_lut_OAI21X1
A_1335_ [_680_ _679_ rb_adrs_1_bF$buf4 _678_] _681_ d_lut_OAI22X1
A_1336_ [rb_adrs_2_bF$buf0 _681_ _116__bF$buf4] _682_ d_lut_OAI21X1
A_1337_ [_676_ _682_ _677_] _1__10_ d_lut_OAI21X1
A_1338_ [\internal_reg_5_\_11_ \internal_reg_4_\_11_ rb_adrs_0_bF$buf2] _2_ d_lut_MUX2X1
A_1339_ [\internal_reg_7_\_11_ _562__bF$buf2] _3_ d_lut_NOR2X1
A_1340_ [\internal_reg_6_\_11_ rb_adrs_0_bF$buf1 rb_adrs_1_bF$buf3] _4_ d_lut_OAI21X1
A_1341_ [_4_ _3_ rb_adrs_1_bF$buf2 _2_] _5_ d_lut_OAI22X1
A_1342_ [_560_ _5_] _6_ d_lut_NOR2X1
A_1343_ [wr_en_bF$buf3 _104__bF$buf3 _684__11_] _7_ d_lut_OAI21X1
A_1344_ [\internal_reg_1_\_11_ \internal_reg_0_\_11_ rb_adrs_0_bF$buf0] _8_ d_lut_MUX2X1
A_1345_ [\internal_reg_3_\_11_ _562__bF$buf1] _9_ d_lut_NOR2X1
A_1346_ [\internal_reg_2_\_11_ rb_adrs_0_bF$buf7 rb_adrs_1_bF$buf1] _10_ d_lut_OAI21X1
A_1347_ [_10_ _9_ rb_adrs_1_bF$buf0 _8_] _11_ d_lut_OAI22X1
A_1348_ [rb_adrs_2_bF$buf3 _11_ _116__bF$buf3] _12_ d_lut_OAI21X1
A_1349_ [_6_ _12_ _7_] _1__11_ d_lut_OAI21X1
A_1350_ [\internal_reg_5_\_12_ \internal_reg_4_\_12_ rb_adrs_0_bF$buf6] _13_ d_lut_MUX2X1
A_1351_ [\internal_reg_7_\_12_ _562__bF$buf0] _14_ d_lut_NOR2X1
A_1352_ [\internal_reg_6_\_12_ rb_adrs_0_bF$buf5 rb_adrs_1_bF$buf7] _15_ d_lut_OAI21X1