*SPEF "IEEE 1481.1999"
*DESIGN "internal_register"
*DATE "18:05:49 Monday June 08, 2020"
*VENDOR "unknown"
*PROGRAM "qrouter"
*VERSION "unknown"
*DESIGN_FLOW "qflow"
*DIVIDER /
*DELIMITER :
*BUS_DELIMITER <>
*T_UNIT 1 PS
*C_UNIT 1 FF
*R_UNIT 1 OHM
*L_UNIT 1 HENRY

*NAME_MAP
*1 _442_
*2 _1006_
*3 _1050_
*4 _1008_
*5 _1017_
*6 _1020_
*7 _1023_
*8 _1014_
*9 _1029_
*10 _1011_
*11 _1032_
*12 _1041_
*13 _1053_
*14 _1035_
*15 _1038_
*16 _1044_
*17 _1026_
*18 _1047_
*19 _493_
*20 _1089_
*21 _1115_
*22 _1106_
*23 _1103_
*24 _1133_
*25 _1100_
*26 _1130_
*27 _1121_
*28 _1118_
*29 _1127_
*30 _1109_
*31 _1091_
*32 _1112_
*33 _1124_
*34 _1094_
*35 _1136_
*36 _1097_
*37 _543_
*38 _1171_
*39 _1189_
*40 _1181_
*41 _1175_
*42 _1199_
*43 _1187_
*44 _1173_
*45 _1197_
*46 _1179_
*47 _1177_
*48 _1183_
*49 _1203_
*50 _1195_
*51 _1201_
*52 _1185_
*53 _1191_
*54 _1193_
*55 _560_
*56 _1204_
*57 _1342_
*58 _1306_
*59 _1390_
*60 _1258_
*61 _1234_
*62 _1222_
*63 _1330_
*64 _1354_
*65 _1282_
*66 _1210_
*67 _1246_
*68 _1270_
*69 _1366_
*70 _1378_
*71 _1318_
*72 _1294_
*73 _90_
*74 _685_
*75 _691_
*76 _717_
*77 _729_
*78 _777_
*79 _705_
*80 _861_
*81 _813_
*82 _765_
*83 _849_
*84 _741_
*85 _873_
*86 _789_
*87 _825_
*88 _753_
*89 _801_
*90 _837_
*91 _405_
*92 _937_
*93 _961_
*94 _949_
*95 _955_
*96 _965_
*97 _959_
*98 _951_
*99 _957_
*100 _967_
*101 _953_
*102 _963_
*103 _945_
*104 _943_
*105 _939_
*106 _947_
*107 _969_
*108 _941_
*109 clock_bF_buf8
*110 CLKBUF1_insert7
*111 _1543_
*112 _1550_
*113 _1518_
*114 _1557_
*115 _1502_
*116 _1553_
*117 _1515_
*118 _1546_
*119 _1544_
*120 _1514_
*121 _1547_
*122 _1512_
*123 _1530_
*124 _1499_
*125 clock_bF_buf9
*126 CLKBUF1_insert6
*127 _1526_
*128 _1588_
*129 _1579_
*130 _1572_
*131 _1567_
*132 _1458_
*133 _1501_
*134 _1460_
*135 _1507_
*136 _1538_
*137 _1442_
*138 _1474_
*139 _1478_
*140 _1584_
*141 clock_bF_buf10
*142 CLKBUF1_insert5
*143 _1552_
*144 _1551_
*145 _1554_
*146 _1500_
*147 _1548_
*148 _1555_
*149 _1510_
*150 _1516_
*151 _1484_
*152 _1490_
*153 _1471_
*154 _1443_
*155 _1522_
*156 _1519_
*157 clock_bF_buf11
*158 CLKBUF1_insert4
*159 _1511_
*160 _1431_
*161 _1489_
*162 _1482_
*163 _1447_
*164 _1441_
*165 _1466_
*166 _1463_
*167 _1527_
*168 _1457_
*169 _1495_
*170 _1483_
*171 _1451_
*172 _1473_
*173 clock_bF_buf0
*174 CLKBUF1_insert15
*175 _1450_
*176 _1528_
*177 _1432_
*178 _1448_
*179 _1449_
*180 _1496_
*181 _1464_
*182 _1498_
*183 _1480_
*184 _1479_
*185 _1434_
*186 _1525_
*187 _1477_
*188 clock_bF_buf1
*189 CLKBUF1_insert14
*190 _1542_
*191 _1545_
*192 _1523_
*193 _1524_
*194 _1513_
*195 _1520_
*196 _1487_
*197 _1556_
*198 _1536_
*199 _1472_
*200 _1535_
*201 _1488_
*202 _1549_
*203 clock_bF_buf2
*204 CLKBUF1_insert13
*205 _1456_
*206 _1503_
*207 _1508_
*208 _1452_
*209 _1436_
*210 _1439_
*211 _1459_
*212 _1506_
*213 _1444_
*214 _1440_
*215 _1504_
*216 _1455_
*217 _1532_
*218 clock_bF_buf3
*219 CLKBUF1_insert12
*220 _1570_
*221 _1586_
*222 _1571_
*223 _1564_
*224 _1581_
*225 _1558_
*226 _1583_
*227 _1580_
*228 _1587_
*229 _1577_
*230 _1494_
*231 _1430_
*232 _1446_
*233 clock_bF_buf4
*234 CLKBUF1_insert11
*235 _1540_
*236 _1438_
*237 _1470_
*238 _1435_
*239 _1521_
*240 _1537_
*241 _1534_
*242 _1505_
*243 _1486_
*244 _1517_
*245 _1533_
*246 _1531_
*247 _1454_
*248 clock_bF_buf5
*249 CLKBUF1_insert10
*250 _1562_
*251 _1559_
*252 _1560_
*253 _1576_
*254 _1433_
*255 _1575_
*256 _1481_
*257 _1561_
*258 _1574_
*259 _1497_
*260 _1565_
*261 _1568_
*262 _1578_
*263 clock_bF_buf6
*264 CLKBUF1_insert9
*265 _1569_
*266 _1585_
*267 _1582_
*268 _1563_
*269 _1573_
*270 _1566_
*271 _1541_
*272 _1509_
*273 _1461_
*274 _1493_
*275 _1445_
*276 _1467_
*277 _1589_
*278 clock_bF_buf7
*279 CLKBUF1_insert8
*280 _1539_
*281 _1492_
*282 _1468_
*283 _1491_
*284 _1475_
*285 _1469_
*286 _1485_
*287 _1437_
*288 _1529_
*289 _1462_
*290 _1465_
*291 _1453_
*292 _1476_
*293 clock
*294 CLKBUF1_insert5
*295 CLKBUF1_insert14
*296 CLKBUF1_insert13
*297 CLKBUF1_insert8
*298 CLKBUF1_insert11
*299 CLKBUF1_insert7
*300 CLKBUF1_insert4
*301 CLKBUF1_insert9
*302 CLKBUF1_insert10
*303 CLKBUF1_insert6
*304 CLKBUF1_insert12
*305 CLKBUF1_insert15
*306 ra_adrs_0_bF_buf7
*307 BUFX2_insert74
*308 _817_
*309 _815_
*310 _805_
*311 _769_
*312 _803_
*313 _767_
*314 _863_
*315 _841_
*316 _839_
*317 rb_adrs_0_bF_buf7
*318 BUFX2_insert26
*319 _1206_
*320 _1242_
*321 _1220_
*322 _1244_
*323 _1218_
*324 _1292_
*325 _1290_
*326 _1254_
*327 _1256_
*328 rb_adrs[1]
*329 BUFX2_insert119
*330 BUFX2_insert121
*331 BUFX2_insert115
*332 BUFX2_insert122
*333 BUFX2_insert117
*334 BUFX2_insert120
*335 BUFX2_insert118
*336 BUFX2_insert116
*337 rb_adrs_1_bF_buf0
*338 BUFX2_insert122
*339 _1329_
*340 _1364_
*341 _1328_
*342 _1365_
*343 _1317_
*344 _1377_
*345 _1316_
*346 _1376_
*347 rb_adrs_1_bF_buf1
*348 BUFX2_insert121
*349 _1371_
*350 _1299_
*351 _1298_
*352 _1280_
*353 _1281_
*354 _1322_
*355 _1323_
*356 _1370_
*357 rb_adrs_1_bF_buf2
*358 BUFX2_insert120
*359 _1232_
*360 _1233_
*361 _1239_
*362 _1238_
*363 _1227_
*364 _1226_
*365 _1275_
*366 _1274_
*367 rb_adrs_1_bF_buf3
*368 BUFX2_insert119
*369 _1359_
*370 _1358_
*371 _1383_
*372 _1382_
*373 _1287_
*374 _1335_
*375 _1334_
*376 _1286_
*377 rb_adrs_1_bF_buf4
*378 BUFX2_insert118
*379 _1269_
*380 _1263_
*381 _1394_
*382 _1395_
*383 _1389_
*384 _1388_
*385 _1262_
*386 _1268_
*387 rb_adrs_1_bF_buf5
*388 BUFX2_insert117
*389 _1305_
*390 _1310_
*391 _1311_
*392 _1340_
*393 _1347_
*394 _1341_
*395 _1346_
*396 _1304_
*397 rb_adrs_1_bF_buf6
*398 BUFX2_insert116
*399 _1353_
*400 _1352_
*401 _1209_
*402 _1208_
*403 _1214_
*404 _1215_
*405 _1251_
*406 _1250_
*407 rb_adrs_1_bF_buf7
*408 BUFX2_insert115
*409 _1293_
*410 _1292_
*411 _1257_
*412 _1256_
*413 _1221_
*414 _1220_
*415 _1245_
*416 _1244_
*417 ra_adrs[0]
*418 BUFX2_insert78
*419 BUFX2_insert80
*420 BUFX2_insert76
*421 BUFX2_insert75
*422 BUFX2_insert77
*423 BUFX2_insert74
*424 BUFX2_insert81
*425 BUFX2_insert79
*426 ra_adrs_0_bF_buf0
*427 BUFX2_insert81
*428 _781_
*429 _763_
*430 _851_
*431 _761_
*432 _799_
*433 _853_
*434 _833_
*435 _865_
*436 ra_adrs_0_bF_buf1
*437 BUFX2_insert80
*438 _871_
*439 _869_
*440 _875_
*441 _877_
*442 _743_
*443 _745_
*444 _721_
*445 _719_
*446 ra_adrs_0_bF_buf2
*447 BUFX2_insert79
*448 _733_
*449 _727_
*450 _731_
*451 _696_
*452 _694_
*453 _689_
*454 _835_
*455 _686_
*456 ra_adrs_0_bF_buf3
*457 BUFX2_insert78
*458 _755_
*459 _823_
*460 _827_
*461 _829_
*462 _791_
*463 _821_
*464 _793_
*465 _785_
*466 ra_adrs_0_bF_buf4
*467 BUFX2_insert77
*468 _779_
*469 _847_
*470 _811_
*471 _859_
*472 _845_
*473 _857_
*474 _809_
*475 _797_
*476 ra_adrs_0_bF_buf5
*477 BUFX2_insert76
*478 _739_
*479 _757_
*480 _709_
*481 _707_
*482 _751_
*483 _749_
*484 _737_
*485 _787_
*486 ra_adrs_0_bF_buf6
*487 BUFX2_insert75
*488 _775_
*489 _703_
*490 _725_
*491 _715_
*492 _713_
*493 _701_
*494 _687_
*495 _773_
*496 ra_adrs[1]
*497 BUFX2_insert41
*498 BUFX2_insert40
*499 BUFX2_insert45
*500 BUFX2_insert44
*501 BUFX2_insert46
*502 BUFX2_insert43
*503 BUFX2_insert42
*504 BUFX2_insert39
*505 ra_adrs_1_bF_buf0
*506 BUFX2_insert46
*507 _836_
*508 _733_
*509 _696_
*510 _734_
*511 _697_
*512 _689_
*513 _835_
*514 _690_
*515 ra_adrs_1_bF_buf1
*516 BUFX2_insert45
*517 _751_
*518 _752_
*519 _758_
*520 _757_
*521 _871_
*522 _872_
*523 _877_
*524 _878_
*525 ra_adrs_1_bF_buf2
*526 BUFX2_insert44
*527 _776_
*528 _775_
*529 _739_
*530 _740_
*531 _704_
*532 _703_
*533 _709_
*534 _710_
*535 ra_adrs_1_bF_buf3
*536 BUFX2_insert43
*537 _841_
*538 _842_
*539 _805_
*540 _818_
*541 _806_
*542 _770_
*543 _769_
*544 _817_
*545 ra_adrs_1_bF_buf4
*546 BUFX2_insert42
*547 _811_
*548 _812_
*549 _848_
*550 _847_
*551 _800_
*552 _799_
*553 _860_
*554 _859_
*555 ra_adrs_1_bF_buf5
*556 BUFX2_insert41
*557 _866_
*558 _865_
*559 _854_
*560 _853_
*561 _782_
*562 _781_
*563 _764_
*564 _763_
*565 ra_adrs_1_bF_buf6
*566 BUFX2_insert40
*567 _715_
*568 _721_
*569 _716_
*570 _722_
*571 _745_
*572 _746_
*573 _727_
*574 _728_
*575 ra_adrs_1_bF_buf7
*576 BUFX2_insert39
*577 _787_
*578 _794_
*579 _793_
*580 _829_
*581 _823_
*582 _824_
*583 _830_
*584 _788_
*585 rb_adrs[0]
*586 BUFX2_insert27
*587 BUFX2_insert31
*588 BUFX2_insert32
*589 BUFX2_insert29
*590 BUFX2_insert30
*591 BUFX2_insert28
*592 BUFX2_insert26
*593 BUFX2_insert33
*594 rb_adrs_0_bF_buf0
*595 BUFX2_insert33
*596 _1208_
*597 _1214_
*598 _1212_
*599 _1205_
*600 _1250_
*601 _1248_
*602 _1352_
*603 _1350_
*604 rb_adrs_0_bF_buf1
*605 BUFX2_insert32
*606 _1388_
*607 _1386_
*608 _1392_
*609 _1394_
*610 _1260_
*611 _1262_
*612 _1238_
*613 _1236_
*614 rb_adrs_0_bF_buf2
*615 BUFX2_insert31
*616 _1232_
*617 _1268_
*618 _1224_
*619 _1274_
*620 _1266_
*621 _1272_
*622 _1226_
*623 _1230_
*624 rb_adrs_0_bF_buf3
*625 BUFX2_insert30
*626 _1280_
*627 _1298_
*628 _1296_
*629 _1334_
*630 _1382_
*631 _1380_
*632 _1358_
*633 _1356_
*634 rb_adrs_0_bF_buf4
*635 BUFX2_insert29
*636 _1364_
*637 _1328_
*638 _1376_
*639 _1316_
*640 _1326_
*641 _1314_
*642 _1362_
*643 _1374_
*644 rb_adrs_0_bF_buf5
*645 BUFX2_insert28
*646 _1278_
*647 _1368_
*648 _1332_
*649 _1284_
*650 _1320_
*651 _1322_
*652 _1370_
*653 _1286_
*654 rb_adrs_0_bF_buf6
*655 BUFX2_insert27
*656 _1340_
*657 _1346_
*658 _1344_
*659 _1338_
*660 _1308_
*661 _1310_
*662 _1302_
*663 _1304_
*664 _562__bF_buf3
*665 BUFX2_insert111
*666 _1279_
*667 _1369_
*668 _1285_
*669 _1357_
*670 _1381_
*671 _1333_
*672 _1321_
*673 _562__bF_buf4
*674 BUFX2_insert110
*675 _1225_
*676 _1273_
*677 _1345_
*678 _1339_
*679 _1303_
*680 _1309_
*681 _1255_
*682 _104__bF_buf2
*683 BUFX2_insert107
*684 _778_
*685 _1283_
*686 _730_
*687 _802_
*688 _1367_
*689 _838_
*690 _766_
*691 _104__bF_buf3
*692 BUFX2_insert106
*693 _706_
*694 _1295_
*695 _1247_
*696 _698_
*697 _693_
*698 _1211_
*699 _1331_
*700 _104__bF_buf4
*701 BUFX2_insert105
*702 _1355_
*703 _850_
*704 _754_
*705 _862_
*706 _1319_
*707 _1379_
*708 _814_
*709 wr_en_bF_buf0
*710 BUFX2_insert104
*711 _718_
*712 _935_
*713 _884_
*714 _1223_
*715 _1259_
*716 _1235_
*717 _742_
*718 wr_en_bF_buf1
*719 BUFX2_insert103
*720 _706_
*721 _1295_
*722 _1247_
*723 _698_
*724 _693_
*725 _1211_
*726 _1331_
*727 wr_en_bF_buf2
*728 BUFX2_insert102
*729 _826_
*730 _1271_
*731 _874_
*732 _790_
*733 _1391_
*734 _1307_
*735 _1343_
*736 wr_en_bF_buf3
*737 BUFX2_insert101
*738 _730_
*739 _850_
*740 _814_
*741 _754_
*742 _862_
*743 _1319_
*744 _1379_
*745 wr_en_bF_buf4
*746 BUFX2_insert100
*747 _778_
*748 _1283_
*749 _1367_
*750 _1355_
*751 _802_
*752 _766_
*753 _838_
*754 _116__bF_buf3
*755 BUFX2_insert92
*756 _747_
*757 _795_
*758 _831_
*759 _879_
*760 _1396_
*761 _1348_
*762 _1312_
*763 _116__bF_buf4
*764 BUFX2_insert91
*765 _855_
*766 _771_
*767 _843_
*768 _1360_
*769 _867_
*770 _819_
*771 _807_
*772 _404__bF_buf0
*773 BUFX2_insert90
*774 _1176_
*775 _1178_
*776 _1196_
*777 _1172_
*778 _944_
*779 _942_
*780 _938_
*781 _404__bF_buf1
*782 BUFX2_insert89
*783 _1182_
*784 _946_
*785 _968_
*786 _940_
*787 _1194_
*788 _1202_
*789 _960_
*790 _404__bF_buf2
*791 BUFX2_insert88
*792 _1198_
*793 _1186_
*794 _952_
*795 _962_
*796 _1192_
*797 _1174_
*798 _1200_
*799 _404__bF_buf3
*800 BUFX2_insert87
*801 _1184_
*802 _1190_
*803 _964_
*804 _958_
*805 _956_
*806 _950_
*807 _966_
*808 _404__bF_buf4
*809 BUFX2_insert86
*810 _937_
*811 _1171_
*812 _1188_
*813 _948_
*814 _954_
*815 _1005_
*816 _1180_
*817 _525__bF_buf3
*818 BUFX2_insert62
*819 _1159_
*820 _1157_
*821 _1156_
*822 _1150_
*823 _1151_
*824 _1163_
*825 _1162_
*826 _525__bF_buf4
*827 BUFX2_insert61
*828 _1152_
*829 _1141_
*830 _1140_
*831 _1144_
*832 _1145_
*833 _1138_
*834 _1139_
*835 _475__bF_buf3
*836 BUFX2_insert57
*837 _1058_
*838 _1081_
*839 _1080_
*840 _1062_
*841 _1063_
*842 _1056_
*843 _1057_
*844 _475__bF_buf4
*845 BUFX2_insert56
*846 _1059_
*847 _1078_
*848 _1079_
*849 _1087_
*850 _1086_
*851 _1061_
*852 _1060_
*853 _94__bF_buf3
*854 BUFX2_insert48
*855 _852_
*856 _864_
*857 _840_
*858 _798_
*859 _816_
*860 _804_
*861 _768_
*862 _94__bF_buf4
*863 BUFX2_insert47
*864 _738_
*865 _756_
*866 _786_
*867 _792_
*868 _828_
*869 _822_
*870 _702_
*871 _423__bF_buf3
*872 BUFX2_insert35
*873 _993_
*874 _1000_
*875 _990_
*876 _991_
*877 _984_
*878 _985_
*879 _1001_
*880 _423__bF_buf4
*881 BUFX2_insert34
*882 _975_
*883 _974_
*884 _977_
*885 _981_
*886 _980_
*887 _1003_
*888 _1002_
*889 _370__bF_buf3
*890 BUFX2_insert22
*891 _909_
*892 _896_
*893 _897_
*894 _894_
*895 _893_
*896 _887_
*897 _888_
*898 _370__bF_buf4
*899 BUFX2_insert21
*900 _927_
*901 _926_
*902 _930_
*903 _929_
*904 _908_
*905 _924_
*906 _923_
*907 _441__bF_buf1
*908 BUFX2_insert19
*909 _1013_
*910 _1111_
*911 _1102_
*912 _1028_
*913 _1129_
*914 _1099_
*915 _1132_
*916 _441__bF_buf2
*917 BUFX2_insert18
*918 _1046_
*919 _1126_
*920 _1037_
*921 _1043_
*922 _1025_
*923 _1108_
*924 _1090_
*925 _441__bF_buf3
*926 BUFX2_insert17
*927 _1096_
*928 _1010_
*929 _1052_
*930 _1123_
*931 _1135_
*932 _1093_
*933 _1040_
*934 _441__bF_buf4
*935 BUFX2_insert16
*936 _1049_
*937 _1006_
*938 _1007_
*939 _1117_
*940 _1120_
*941 _1016_
*942 _1034_
*943 _562__bF_buf0
*944 BUFX2_insert114
*945 _1267_
*946 _1261_
*947 _1393_
*948 _1387_
*949 _1237_
*950 _1231_
*951 _562__bF_buf1
*952 BUFX2_insert113
*953 _1351_
*954 _1207_
*955 _1249_
*956 _1213_
*957 _1243_
*958 _1219_
*959 _562__bF_buf2
*960 BUFX2_insert112
*961 _1291_
*962 _1297_
*963 _1327_
*964 _1363_
*965 _1375_
*966 _1315_
*967 _104__bF_buf0
*968 BUFX2_insert109
*969 _718_
*970 _1235_
*971 _1259_
*972 _1223_
*973 _1271_
*974 _826_
*975 _104__bF_buf1
*976 BUFX2_insert108
*977 _742_
*978 _874_
*979 _790_
*980 _1391_
*981 _1343_
*982 _1307_
*983 _116__bF_buf0
*984 BUFX2_insert95
*985 _1288_
*986 _1216_
*987 _699_
*988 _1300_
*989 _1252_
*990 _735_
*991 _116__bF_buf1
*992 BUFX2_insert94
*993 _783_
*994 _1336_
*995 _759_
*996 _1372_
*997 _1324_
*998 _1384_
*999 _116__bF_buf2
*1000 BUFX2_insert93
*1001 _1240_
*1002 _723_
*1003 _711_
*1004 _1228_
*1005 _1276_
*1006 _1264_
*1007 _525__bF_buf0
*1008 BUFX2_insert65
*1009 _1161_
*1010 _1160_
*1011 _1147_
*1012 _1146_
*1013 _1154_
*1014 _1155_
*1015 _525__bF_buf1
*1016 BUFX2_insert64
*1017 _1149_
*1018 _1148_
*1019 _1169_
*1020 _1168_
*1021 _1142_
*1022 _1143_
*1023 _525__bF_buf2
*1024 BUFX2_insert63
*1025 _1165_
*1026 _1164_
*1027 _1153_
*1028 _1167_
*1029 _1166_
*1030 _1158_
*1031 _475__bF_buf0
*1032 BUFX2_insert60
*1033 _1074_
*1034 _1075_
*1035 _1069_
*1036 _1068_
*1037 _1076_
*1038 _1077_
*1039 _475__bF_buf1
*1040 BUFX2_insert59
*1041 _1064_
*1042 _1065_
*1043 _1066_
*1044 _1067_
*1045 _1073_
*1046 _1072_
*1047 _475__bF_buf2
*1048 BUFX2_insert58
*1049 _1082_
*1050 _1083_
*1051 _1070_
*1052 _1071_
*1053 _1084_
*1054 _1085_
*1055 _94__bF_buf0
*1056 BUFX2_insert51
*1057 _714_
*1058 _695_
*1059 _732_
*1060 _726_
*1061 _688_
*1062 _834_
*1063 _94__bF_buf1
*1064 BUFX2_insert50
*1065 _708_
*1066 _750_
*1067 _744_
*1068 _720_
*1069 _870_
*1070 _876_
*1071 _94__bF_buf2
*1072 BUFX2_insert49
*1073 _780_
*1074 _846_
*1075 _774_
*1076 _762_
*1077 _858_
*1078 _810_
*1079 _423__bF_buf0
*1080 BUFX2_insert38
*1081 _992_
*1082 _997_
*1083 _996_
*1084 _998_
*1085 _986_
*1086 _999_
*1087 _423__bF_buf1
*1088 BUFX2_insert37
*1089 _995_
*1090 _994_
*1091 _982_
*1092 _983_
*1093 _989_
*1094 _988_
*1095 _423__bF_buf2
*1096 BUFX2_insert36
*1097 _987_
*1098 _976_
*1099 _972_
*1100 _973_
*1101 _979_
*1102 _978_
*1103 _370__bF_buf0
*1104 BUFX2_insert25
*1105 _891_
*1106 _890_
*1107 _921_
*1108 _920_
*1109 _911_
*1110 _912_
*1111 _370__bF_buf1
*1112 BUFX2_insert24
*1113 _903_
*1114 _902_
*1115 _933_
*1116 _932_
*1117 _900_
*1118 _899_
*1119 _370__bF_buf2
*1120 BUFX2_insert23
*1121 _918_
*1122 _917_
*1123 _915_
*1124 _914_
*1125 _906_
*1126 _905_
*1127 _441__bF_buf0
*1128 BUFX2_insert20
*1129 _1022_
*1130 _1105_
*1131 _1019_
*1132 _1114_
*1133 _1031_
*1134 _1089_
*1135 _398_
*1136 _928_
*1137 _1085_
*1138 _1167_
*1139 _1201_
*1140 _930_
*1141 _967_
*1142 _1001_
*1143 _400_
*1144 _931_
*1145 _1203_
*1146 _1169_
*1147 _933_
*1148 _1087_
*1149 _1003_
*1150 _969_
*1151 _365_
*1152 _881_
*1153 _1173_
*1154 _1139_
*1155 _1057_
*1156 _939_
*1157 _888_
*1158 _973_
*1159 _372_
*1160 _889_
*1161 _891_
*1162 _1059_
*1163 _975_
*1164 _1141_
*1165 _941_
*1166 _1175_
*1167 _374_
*1168 _892_
*1169 _1143_
*1170 _1177_
*1171 _943_
*1172 _894_
*1173 _1061_
*1174 _977_
*1175 _376_
*1176 _895_
*1177 _1179_
*1178 _1145_
*1179 _979_
*1180 _945_
*1181 _897_
*1182 _1063_
*1183 _378_
*1184 _898_
*1185 _1065_
*1186 _1181_
*1187 _1147_
*1188 _947_
*1189 _981_
*1190 _900_
*1191 _380_
*1192 _901_
*1193 _1067_
*1194 _949_
*1195 _1149_
*1196 _903_
*1197 _1183_
*1198 _983_
*1199 _382_
*1200 _904_
*1201 _1069_
*1202 _1185_
*1203 _1151_
*1204 _985_
*1205 _906_
*1206 _951_
*1207 _384_
*1208 _907_
*1209 _1071_
*1210 _1153_
*1211 _1187_
*1212 _953_
*1213 _909_
*1214 _987_
*1215 _386_
*1216 _910_
*1217 _989_
*1218 _955_
*1219 _912_
*1220 _1155_
*1221 _1073_
*1222 _1189_
*1223 _388_
*1224 _913_
*1225 _1157_
*1226 _1075_
*1227 _1191_
*1228 _915_
*1229 _991_
*1230 _957_
*1231 _390_
*1232 _916_
*1233 _918_
*1234 _959_
*1235 _993_
*1236 _1193_
*1237 _1159_
*1238 _1077_
*1239 _392_
*1240 _919_
*1241 _1079_
*1242 _921_
*1243 _1161_
*1244 _1195_
*1245 _995_
*1246 _961_
*1247 _394_
*1248 _922_
*1249 _1163_
*1250 _997_
*1251 _963_
*1252 _924_
*1253 _1197_
*1254 _1081_
*1255 _396_
*1256 _925_
*1257 _965_
*1258 _927_
*1259 _999_
*1260 _1165_
*1261 _1199_
*1262 _1083_
*1263 _562_
*1264 _1206_
*1265 BUFX2_insert114
*1266 BUFX2_insert113
*1267 BUFX2_insert111
*1268 BUFX2_insert112
*1269 BUFX2_insert110
*1270 _104_
*1271 _692_
*1272 BUFX2_insert106
*1273 BUFX2_insert109
*1274 BUFX2_insert108
*1275 BUFX2_insert105
*1276 BUFX2_insert107
*1277 wr_en
*1278 BUFX2_insert103
*1279 BUFX2_insert104
*1280 BUFX2_insert102
*1281 BUFX2_insert100
*1282 BUFX2_insert101
*1283 _474__bF_buf2
*1284 BUFX2_insert97
*1285 _1120_
*1286 _1117_
*1287 _1090_
*1288 _1126_
*1289 _1108_
*1290 _474__bF_buf3
*1291 BUFX2_insert96
*1292 _1105_
*1293 _1114_
*1294 _1123_
*1295 _1135_
*1296 _1093_
*1297 _116_
*1298 _698_
*1299 BUFX2_insert91
*1300 BUFX2_insert94
*1301 BUFX2_insert95
*1302 BUFX2_insert93
*1303 BUFX2_insert92
*1304 _404_
*1305 _936_
*1306 BUFX2_insert89
*1307 BUFX2_insert88
*1308 BUFX2_insert87
*1309 BUFX2_insert86
*1310 BUFX2_insert90
*1311 _542__bF_buf3
*1312 BUFX2_insert82
*1313 _1198_
*1314 _1176_
*1315 _1182_
*1316 _1194_
*1317 _1202_
*1318 _422__bF_buf2
*1319 BUFX2_insert71
*1320 _1031_
*1321 _1040_
*1322 _1052_
*1323 _1010_
*1324 _1022_
*1325 _422__bF_buf3
*1326 BUFX2_insert70
*1327 _1007_
*1328 _1037_
*1329 _1043_
*1330 _1025_
*1331 _1034_
*1332 rb_adrs_2_bF_buf3
*1333 BUFX2_insert66
*1334 _1360_
*1335 _1336_
*1336 _1372_
*1337 _1324_
*1338 _1384_
*1339 _525_
*1340 _1137_
*1341 BUFX2_insert62
*1342 BUFX2_insert63
*1343 BUFX2_insert65
*1344 BUFX2_insert61
*1345 BUFX2_insert64
*1346 _475_
*1347 _1055_
*1348 BUFX2_insert60
*1349 BUFX2_insert59
*1350 BUFX2_insert56
*1351 BUFX2_insert58
*1352 BUFX2_insert57
*1353 _402__bF_buf3
*1354 BUFX2_insert52
*1355 _964_
*1356 _958_
*1357 _956_
*1358 _950_
*1359 _966_
*1360 _94_
*1361 _687_
*1362 BUFX2_insert50
*1363 BUFX2_insert51
*1364 BUFX2_insert47
*1365 BUFX2_insert49
*1366 BUFX2_insert48
*1367 _423_
*1368 _971_
*1369 BUFX2_insert37
*1370 BUFX2_insert35
*1371 BUFX2_insert38
*1372 BUFX2_insert36
*1373 BUFX2_insert34
*1374 _370_
*1375 _886_
*1376 BUFX2_insert25
*1377 BUFX2_insert24
*1378 BUFX2_insert22
*1379 BUFX2_insert21
*1380 BUFX2_insert23
*1381 _441_
*1382 _1005_
*1383 BUFX2_insert17
*1384 BUFX2_insert20
*1385 BUFX2_insert19
*1386 BUFX2_insert18
*1387 BUFX2_insert16
*1388 ra_adrs_2_bF_buf3
*1389 BUFX2_insert0
*1390 _735_
*1391 _783_
*1392 _867_
*1393 _759_
*1394 _819_
*1395 _474_
*1396 _1054_
*1397 BUFX2_insert99
*1398 BUFX2_insert97
*1399 BUFX2_insert96
*1400 BUFX2_insert98
*1401 _474__bF_buf0
*1402 BUFX2_insert99
*1403 _1129_
*1404 _1099_
*1405 _1132_
*1406 _1055_
*1407 _474__bF_buf1
*1408 BUFX2_insert98
*1409 _1089_
*1410 _1096_
*1411 _1102_
*1412 _1111_
*1413 _542_
*1414 _1170_
*1415 BUFX2_insert84
*1416 BUFX2_insert83
*1417 BUFX2_insert82
*1418 BUFX2_insert85
*1419 _542__bF_buf0
*1420 BUFX2_insert85
*1421 _1186_
*1422 _1172_
*1423 _1196_
*1424 _1178_
*1425 _542__bF_buf1
*1426 BUFX2_insert84
*1427 _1192_
*1428 _1200_
*1429 _1184_
*1430 _1190_
*1431 _542__bF_buf2
*1432 BUFX2_insert83
*1433 _1174_
*1434 _1180_
*1435 _1171_
*1436 _1188_
*1437 _422_
*1438 _970_
*1439 BUFX2_insert73
*1440 BUFX2_insert70
*1441 BUFX2_insert72
*1442 BUFX2_insert71
*1443 _422__bF_buf0
*1444 BUFX2_insert73
*1445 _1046_
*1446 _1049_
*1447 _1006_
*1448 _1016_
*1449 _422__bF_buf1
*1450 BUFX2_insert72
*1451 _1019_
*1452 _1013_
*1453 _971_
*1454 _1028_
*1455 rb_adrs[2]
*1456 BUFX2_insert69
*1457 BUFX2_insert67
*1458 BUFX2_insert68
*1459 BUFX2_insert66
*1460 rb_adrs_2_bF_buf0
*1461 BUFX2_insert69
*1462 _1348_
*1463 _1396_
*1464 _1204_
*1465 _1312_
*1466 rb_adrs_2_bF_buf1
*1467 BUFX2_insert68
*1468 _1216_
*1469 _1252_
*1470 _1300_
*1471 _1288_
*1472 rb_adrs_2_bF_buf2
*1473 BUFX2_insert67
*1474 _1228_
*1475 _1240_
*1476 _1276_
*1477 _1264_
*1478 _402_
*1479 _934_
*1480 BUFX2_insert54
*1481 BUFX2_insert53
*1482 BUFX2_insert55
*1483 BUFX2_insert52
*1484 _402__bF_buf0
*1485 BUFX2_insert55
*1486 _946_
*1487 _968_
*1488 _940_
*1489 _942_
*1490 _402__bF_buf1
*1491 BUFX2_insert54
*1492 _960_
*1493 _937_
*1494 _948_
*1495 _954_
*1496 _402__bF_buf2
*1497 BUFX2_insert53
*1498 _952_
*1499 _962_
*1500 _944_
*1501 _938_
*1502 ra_adrs[2]
*1503 BUFX2_insert3
*1504 BUFX2_insert0
*1505 BUFX2_insert1
*1506 BUFX2_insert2
*1507 ra_adrs_2_bF_buf0
*1508 BUFX2_insert3
*1509 _855_
*1510 _771_
*1511 _843_
*1512 _807_
*1513 ra_adrs_2_bF_buf1
*1514 BUFX2_insert2
*1515 _747_
*1516 _879_
*1517 _831_
*1518 _795_
*1519 ra_adrs_2_bF_buf2
*1520 BUFX2_insert1
*1521 _685_
*1522 _699_
*1523 _711_
*1524 _723_
*1525 rd_adrs[1]
*1526 _883_
*1527 _1170_
*1528 _1137_
*1529 _1054_
*1530 _369_
*1531 _885_
*1532 _1137_
*1533 _971_
*1534 _1055_
*1535 _886_
*1536 rd_adrs[2]
*1537 _970_
*1538 _882_
*1539 _1170_
*1540 _1137_
*1541 \internal_reg[2]\[14]
*1542 _1508_
*1543 _1000_
*1544 _1382_
*1545 _865_
*1546 \internal_reg[2]\[15]
*1547 _1509_
*1548 _877_
*1549 _1394_
*1550 _1002_
*1551 \internal_reg[3]\[0]
*1552 _1542_
*1553 _1004_
*1554 _1213_
*1555 _695_
*1556 data_in[0]
*1557 _1007_
*1558 _881_
*1559 _1090_
*1560 \internal_reg[3]\[1]
*1561 _1543_
*1562 _1009_
*1563 _1225_
*1564 _708_
*1565 data_in[1]
*1566 _1093_
*1567 _1010_
*1568 _889_
*1569 \internal_reg[3]\[2]
*1570 _1544_
*1571 _1012_
*1572 _1237_
*1573 _720_
*1574 data_in[2]
*1575 _1096_
*1576 _1013_
*1577 _892_
*1578 \internal_reg[3]\[3]
*1579 _1545_
*1580 _1015_
*1581 _1249_
*1582 _732_
*1583 data_in[3]
*1584 _1016_
*1585 _1099_
*1586 _895_
*1587 \internal_reg[3]\[4]
*1588 _1546_
*1589 _1018_
*1590 _744_
*1591 _1261_
*1592 data_in[4]
*1593 _1019_
*1594 _1102_
*1595 _898_
*1596 \internal_reg[3]\[5]
*1597 _1547_
*1598 _1021_
*1599 _1273_
*1600 _756_
*1601 data_in[5]
*1602 _1105_
*1603 _1022_
*1604 _901_
*1605 \internal_reg[3]\[6]
*1606 _1548_
*1607 _1024_
*1608 _768_
*1609 _1285_
*1610 data_in[6]
*1611 _1108_
*1612 _904_
*1613 _1025_
*1614 \internal_reg[3]\[7]
*1615 _1549_
*1616 _1027_
*1617 _780_
*1618 _1297_
*1619 data_in[7]
*1620 _1111_
*1621 _907_
*1622 _1028_
*1623 \internal_reg[3]\[8]
*1624 _1550_
*1625 _1030_
*1626 _1309_
*1627 _792_
*1628 data_in[8]
*1629 _1114_
*1630 _910_
*1631 _1031_
*1632 \internal_reg[3]\[9]
*1633 _1551_
*1634 _1033_
*1635 _804_
*1636 _1321_
*1637 data_in[9]
*1638 _1034_
*1639 _913_
*1640 _1117_
*1641 \internal_reg[3]\[10]
*1642 _1552_
*1643 _1036_
*1644 _816_
*1645 _1333_
*1646 data_in[10]
*1647 _1120_
*1648 _916_
*1649 _1037_
*1650 \internal_reg[3]\[11]
*1651 _1553_
*1652 _1039_
*1653 _828_
*1654 _1345_
*1655 data_in[11]
*1656 _1123_
*1657 _1040_
*1658 _919_
*1659 \internal_reg[3]\[12]
*1660 _1554_
*1661 _1042_
*1662 _840_
*1663 _1357_
*1664 data_in[12]
*1665 _1126_
*1666 _1043_
*1667 _922_
*1668 \internal_reg[3]\[13]
*1669 _1555_
*1670 _1045_
*1671 _1369_
*1672 _852_
*1673 data_in[13]
*1674 _1129_
*1675 _925_
*1676 _1046_
*1677 \internal_reg[3]\[14]
*1678 _1556_
*1679 _1048_
*1680 _1381_
*1681 _864_
*1682 data_in[14]
*1683 _928_
*1684 _1132_
*1685 _1049_
*1686 \internal_reg[3]\[15]
*1687 _1557_
*1688 _1051_
*1689 _876_
*1690 _1393_
*1691 data_in[15]
*1692 _1135_
*1693 _1052_
*1694 _931_
*1695 _366_
*1696 _882_
*1697 _886_
*1698 _1054_
*1699 _934_
*1700 \internal_reg[4]\[0]
*1701 _1526_
*1702 _686_
*1703 _1056_
*1704 _1205_
*1705 \internal_reg[4]\[1]
*1706 _1527_
*1707 _1058_
*1708 _1218_
*1709 _701_
*1710 \internal_reg[4]\[2]
*1711 _1528_
*1712 _1060_
*1713 _713_
*1714 _1230_
*1715 \internal_reg[4]\[3]
*1716 _1529_
*1717 _1062_
*1718 _1242_
*1719 _725_
*1720 \internal_reg[4]\[4]
*1721 _1530_
*1722 _1064_
*1723 _1254_
*1724 _737_
*1725 \internal_reg[4]\[5]
*1726 _1531_
*1727 _1066_
*1728 _749_
*1729 _1266_
*1730 \internal_reg[4]\[6]
*1731 _1532_
*1732 _1068_
*1733 _761_
*1734 _1278_
*1735 \internal_reg[4]\[7]
*1736 _1533_
*1737 _1070_
*1738 _1290_
*1739 _773_
*1740 \internal_reg[4]\[8]
*1741 _1534_
*1742 _1072_
*1743 _785_
*1744 _1302_
*1745 \internal_reg[4]\[9]
*1746 _1535_
*1747 _1074_
*1748 _1314_
*1749 _797_
*1750 \internal_reg[4]\[10]
*1751 _1536_
*1752 _1076_
*1753 _1326_
*1754 _809_
*1755 \internal_reg[4]\[11]
*1756 _1537_
*1757 _1078_
*1758 _821_
*1759 _1338_
*1760 \internal_reg[4]\[12]
*1761 _1538_
*1762 _833_
*1763 _1350_
*1764 _1080_
*1765 \internal_reg[4]\[13]
*1766 _1539_
*1767 _1082_
*1768 _845_
*1769 _1362_
*1770 \internal_reg[4]\[14]
*1771 _1540_
*1772 _1084_
*1773 _1374_
*1774 _857_
*1775 \internal_reg[4]\[15]
*1776 _1541_
*1777 _1086_
*1778 _1386_
*1779 _869_
*1780 \internal_reg[5]\[0]
*1781 _1510_
*1782 _1088_
*1783 _686_
*1784 _1205_
*1785 \internal_reg[5]\[1]
*1786 _1511_
*1787 _1092_
*1788 _701_
*1789 _1218_
*1790 \internal_reg[5]\[2]
*1791 _1512_
*1792 _1095_
*1793 _1230_
*1794 _713_
*1795 \internal_reg[5]\[3]
*1796 _1513_
*1797 _1098_
*1798 _1242_
*1799 _725_
*1800 \internal_reg[5]\[4]
*1801 _1514_
*1802 _1101_
*1803 _1254_
*1804 _737_
*1805 \internal_reg[5]\[5]
*1806 _1515_
*1807 _1104_
*1808 _749_
*1809 _1266_
*1810 \internal_reg[5]\[6]
*1811 _1516_
*1812 _1107_
*1813 _761_
*1814 _1278_
*1815 \internal_reg[5]\[7]
*1816 _1517_
*1817 _1110_
*1818 _773_
*1819 _1290_
*1820 \internal_reg[5]\[8]
*1821 _1518_
*1822 _1113_
*1823 _785_
*1824 _1302_
*1825 \internal_reg[5]\[9]
*1826 _1519_
*1827 _1116_
*1828 _1314_
*1829 _797_
*1830 \internal_reg[5]\[10]
*1831 _1520_
*1832 _1119_
*1833 _1326_
*1834 _809_
*1835 \internal_reg[5]\[11]
*1836 _1521_
*1837 _1122_
*1838 _821_
*1839 _1338_
*1840 \internal_reg[5]\[12]
*1841 _1522_
*1842 _1125_
*1843 _833_
*1844 _1350_
*1845 \internal_reg[5]\[13]
*1846 _1523_
*1847 _1128_
*1848 _1362_
*1849 _845_
*1850 \internal_reg[5]\[14]
*1851 _1524_
*1852 _1131_
*1853 _1374_
*1854 _857_
*1855 \internal_reg[5]\[15]
*1856 _1525_
*1857 _1134_
*1858 _1386_
*1859 _869_
*1860 \internal_reg[6]\[0]
*1861 _1478_
*1862 _1208_
*1863 _689_
*1864 _1138_
*1865 \internal_reg[6]\[1]
*1866 _1479_
*1867 _1220_
*1868 _703_
*1869 _1140_
*1870 \internal_reg[6]\[2]
*1871 _1480_
*1872 _1232_
*1873 _1142_
*1874 _715_
*1875 \internal_reg[6]\[3]
*1876 _1481_
*1877 _1244_
*1878 _727_
*1879 _1144_
*1880 \internal_reg[6]\[4]
*1881 _1482_
*1882 _1146_
*1883 _1256_
*1884 _739_
*1885 \internal_reg[6]\[5]
*1886 _1483_
*1887 _1148_
*1888 _751_
*1889 _1268_
*1890 \internal_reg[6]\[6]
*1891 _1484_
*1892 _1150_
*1893 _1280_
*1894 _763_
*1895 \internal_reg[6]\[7]
*1896 _1485_
*1897 _1152_
*1898 _1292_
*1899 _775_
*1900 \internal_reg[6]\[8]
*1901 _1486_
*1902 _1154_
*1903 _1304_
*1904 _787_
*1905 \internal_reg[6]\[9]
*1906 _1487_
*1907 _1156_
*1908 _1316_
*1909 _799_
*1910 \internal_reg[6]\[10]
*1911 _1488_
*1912 _1158_
*1913 _811_
*1914 _1328_
*1915 \internal_reg[6]\[11]
*1916 _1489_
*1917 _1340_
*1918 _823_
*1919 _1160_
*1920 \internal_reg[6]\[12]
*1921 _1490_
*1922 _1162_
*1923 _1352_
*1924 _835_
*1925 \internal_reg[6]\[13]
*1926 _1491_
*1927 _1164_
*1928 _847_
*1929 _1364_
*1930 \internal_reg[6]\[14]
*1931 _1492_
*1932 _1376_
*1933 _859_
*1934 _1166_
*1935 \internal_reg[6]\[15]
*1936 _1493_
*1937 _1388_
*1938 _1168_
*1939 _871_
*1940 \internal_reg[7]\[0]
*1941 _1462_
*1942 _1172_
*1943 _688_
*1944 _1207_
*1945 \internal_reg[7]\[1]
*1946 _1463_
*1947 _1174_
*1948 _702_
*1949 _1219_
*1950 \internal_reg[7]\[2]
*1951 _1464_
*1952 _714_
*1953 _1176_
*1954 _1231_
*1955 \internal_reg[7]\[3]
*1956 _1465_
*1957 _1243_
*1958 _726_
*1959 _1178_
*1960 \internal_reg[7]\[4]
*1961 _1466_
*1962 _1180_
*1963 _1255_
*1964 _738_
*1965 \internal_reg[7]\[5]
*1966 _1467_
*1967 _1267_
*1968 _750_
*1969 _1182_
*1970 \internal_reg[7]\[6]
*1971 _1468_
*1972 _1184_
*1973 _762_
*1974 _1279_
*1975 \internal_reg[7]\[7]
*1976 _1469_
*1977 _774_
*1978 _1186_
*1979 _1291_
*1980 \internal_reg[7]\[8]
*1981 _1470_
*1982 _1188_
*1983 _1303_
*1984 _786_
*1985 \internal_reg[7]\[9]
*1986 _1471_
*1987 _1190_
*1988 _1315_
*1989 _798_
*1990 \internal_reg[7]\[10]
*1991 _1472_
*1992 _1192_
*1993 _810_
*1994 _1327_
*1995 \internal_reg[7]\[11]
*1996 _1473_
*1997 _1194_
*1998 _1339_
*1999 _822_
*2000 \internal_reg[7]\[12]
*2001 _1474_
*2002 _1196_
*2003 _1351_
*2004 _834_
*2005 \internal_reg[7]\[13]
*2006 _1475_
*2007 _1363_
*2008 _846_
*2009 _1198_
*2010 \internal_reg[7]\[14]
*2011 _1476_
*2012 _1375_
*2013 _858_
*2014 _1200_
*2015 \internal_reg[7]\[15]
*2016 _1477_
*2017 _1202_
*2018 _870_
*2019 _1387_
*2020 \internal_reg[1]\[0]
*2021 _1430_
*2022 _1212_
*2023 _938_
*2024 _694_
*2025 \internal_reg[0]\[0]
*2026 _1446_
*2027 _887_
*2028 _1212_
*2029 _694_
*2030 \internal_reg[2]\[0]
*2031 _1494_
*2032 _972_
*2033 _696_
*2034 _1214_
*2035 \internal_reg[1]\[1]
*2036 _1431_
*2037 _940_
*2038 _707_
*2039 _1224_
*2040 \internal_reg[0]\[1]
*2041 _1447_
*2042 _707_
*2043 _1224_
*2044 _890_
*2045 \internal_reg[2]\[1]
*2046 _1495_
*2047 _1226_
*2048 _709_
*2049 _974_
*2050 \internal_reg[1]\[2]
*2051 _1432_
*2052 _942_
*2053 _1236_
*2054 _719_
*2055 \internal_reg[0]\[2]
*2056 _1448_
*2057 _893_
*2058 _719_
*2059 _1236_
*2060 \internal_reg[2]\[2]
*2061 _1496_
*2062 _1238_
*2063 _721_
*2064 _976_
*2065 \internal_reg[1]\[3]
*2066 _1433_
*2067 _944_
*2068 _731_
*2069 _1248_
*2070 \internal_reg[0]\[3]
*2071 _1449_